/*---------------------------------------------------------------------------*\
| =========                 |                                                 |
| \\      /  F ield         | OpenFOAM: The Open Source CFD Toolbox           |
|  \\    /   O peration     | Version:  2312                                  |
|   \\  /    A nd           | Website:  www.openfoam.com                      |
|    \\/     M anipulation  |                                                 |
\*---------------------------------------------------------------------------*/
Build  : _c39a0f64-20231220 OPENFOAM=2312 version=2312
Arch   : "LSB;label=32;scalar=64"
Exec   : simpleFoam
Date   : Jun 06 2024
Time   : 11:02:30
Host   : Manas
PID    : 65652
I/O    : uncollated
Case   : /home/manascfd/Masters_Projects_Main/CF_KwSST_1
nProcs : 1
trapFpe: Floating point exception trapping enabled (FOAM_SIGFPE).
fileModificationChecking : Monitoring run-time modified files using timeStampMaster (fileModificationSkew 5, maxFileModificationPolls 20)
allowSystemOperations : Allowing user-supplied system call operations

// * * * * * * * * * * * * * * * * * * * * * * * * * * * * * * * * * * * * * //
Create time

Create mesh for time = 0


SIMPLE: convergence criteria
    field p	 tolerance 1e-12
    field U	 tolerance 1e-12
    field "(k|epsilon|omega|f|v2)"	 tolerance 1e-12

Reading field p

Reading field U

Reading/calculating face flux field phi

Selecting incompressible transport model Newtonian
Selecting turbulence model type RAS
Selecting RAS turbulence model kOmegaSST
Selecting patchDistMethod meshWave
RAS
{
    RASModel        kOmegaSST;
    turbulence      on;
    printCoeffs     on;
    alphaK1         0.85;
    alphaK2         1;
    alphaOmega1     0.5;
    alphaOmega2     0.856;
    gamma1          0.555556;
    gamma2          0.44;
    beta1           0.075;
    beta2           0.0828;
    betaStar        0.09;
    a1              0.31;
    b1              1;
    c1              10;
    F3              false;
    decayControl    false;
    kInf            0;
    omegaInf        0;
}

No MRF models present

No finite volume options present

Starting time loop

forceCoeffs forceCoeffs:
    rho: rhoInf
    Freestream density (rhoInf) set to 1
    Not including porosity effects
    magUInf: 1
    lRef   : 1
    Aref   : 1
    rhoInf : 1
    Selecting all coefficients
    - Drag force: Cd
    - Drag force front: Cd(f)
    - Drag force rear: Cd(r)
    - Lift force: Cl
    - Lift force front: Cl(f)
    - Lift force rear: Cl(r)
    - Pitch moment: CmPitch
    - Roll moment: CmRoll
    - Yaw moment: CmYaw
    - Side force: Cs
    - Side force front: Cs(f)
    - Side force rear: Cs(r)


Sampled set:
    sampleLine_U -> raw

streamLine streamlines:
    Employing velocity field U
    automatic track length specified through number of sub cycles : 5

Time = 1

smoothSolver:  Solving for Ux, Initial residual = 1, Final residual = 8.22956e-13, No Iterations 72
smoothSolver:  Solving for Uy, Initial residual = 1, Final residual = 8.90719e-13, No Iterations 80
GAMG:  Solving for p, Initial residual = 1, Final residual = 9.99086e-12, No Iterations 1000
time step continuity errors : sum local = 3.17535e-14, global = -4.00258e-16, cumulative = -4.00258e-16
smoothSolver:  Solving for omega, Initial residual = 0.112348, Final residual = 8.00395e-13, No Iterations 73
smoothSolver:  Solving for k, Initial residual = 1, Final residual = 8.55777e-13, No Iterations 80
ExecutionTime = 6.1 s  ClockTime = 6 s

forceCoeffs forceCoeffs write:
    Coefficient	Total	Pressure	Viscous	Internal
    Cd:	0.0016534	0.00164568	7.71463e-06	0
    Cd(f):	0.000816889	0.000813077	3.81215e-06	0
    Cd(r):	0.00083651	0.000832608	3.90248e-06	0
    Cl:	1.96207e-05	1.95304e-05	9.03385e-08	0
    Cl(f):	9.79639e-06	9.76519e-06	3.11974e-08	0
    Cl(r):	9.82433e-06	9.76519e-06	5.91411e-08	0
    CmPitch:	-1.39719e-08	4.83049e-17	-1.39719e-08	0
    CmRoll:	-9.81036e-06	-9.76519e-06	-4.51692e-08	0
    CmYaw:	0.0008267	0.000822842	3.85732e-06	0
    Cs:	-5.67437e-22	-3.1474e-22	-2.52697e-22	0
    Cs(f):	0.0008267	0.000822842	3.85732e-06	0
    Cs(r):	-0.0008267	-0.000822842	-3.85732e-06	0

    writing force and moment coefficient files.

Time = 2

smoothSolver:  Solving for Ux, Initial residual = 0.34415, Final residual = 7.69626e-13, No Iterations 80
smoothSolver:  Solving for Uy, Initial residual = 0.596054, Final residual = 8.25185e-13, No Iterations 78
GAMG:  Solving for p, Initial residual = 0.0380493, Final residual = 7.66e-13, No Iterations 42
time step continuity errors : sum local = 2.66209e-13, global = 8.15373e-15, cumulative = 7.75348e-15
smoothSolver:  Solving for omega, Initial residual = 0.109655, Final residual = 9.3249e-13, No Iterations 63
bounding omega, min: -0.0309434 max: 63.5766 average: 0.0858823
smoothSolver:  Solving for k, Initial residual = 0.435229, Final residual = 8.86306e-13, No Iterations 75
ExecutionTime = 6.93 s  ClockTime = 7 s

forceCoeffs forceCoeffs write:
    Coefficient	Total	Pressure	Viscous	Internal
    Cd:	0.00106843	0.0010357	3.27257e-05	0
    Cd(f):	0.000541138	0.000524779	1.63585e-05	0
    Cd(r):	0.000527288	0.00051092	1.63672e-05	0
    Cl:	-1.38503e-05	-1.3859e-05	8.73095e-09	0
    Cl(f):	-7.13014e-06	-6.9295e-06	-2.0064e-07	0
    Cl(r):	-6.72013e-06	-6.9295e-06	2.0937e-07	0
    CmPitch:	-2.05005e-07	9.57391e-17	-2.05005e-07	0
    CmRoll:	6.92514e-06	6.9295e-06	-4.36547e-09	0
    CmYaw:	0.000534213	0.00051785	1.63628e-05	0
    Cs:	2.44392e-22	-2.47018e-23	2.69094e-22	0
    Cs(f):	0.000534213	0.00051785	1.63628e-05	0
    Cs(r):	-0.000534213	-0.00051785	-1.63628e-05	0

    writing force and moment coefficient files.

Time = 3

smoothSolver:  Solving for Ux, Initial residual = 0.125041, Final residual = 7.42088e-13, No Iterations 74
smoothSolver:  Solving for Uy, Initial residual = 0.523738, Final residual = 8.27454e-13, No Iterations 77
GAMG:  Solving for p, Initial residual = 0.204064, Final residual = 7.19032e-13, No Iterations 46
time step continuity errors : sum local = 2.23715e-14, global = 8.64789e-16, cumulative = 8.61827e-15
smoothSolver:  Solving for omega, Initial residual = 0.10152, Final residual = 9.58141e-13, No Iterations 67
bounding omega, min: -0.0699359 max: 63.5664 average: 0.0914579
smoothSolver:  Solving for k, Initial residual = 0.239587, Final residual = 7.62976e-13, No Iterations 74
ExecutionTime = 7.72 s  ClockTime = 7 s

forceCoeffs forceCoeffs write:
    Coefficient	Total	Pressure	Viscous	Internal
    Cd:	0.00131406	0.00127645	3.76197e-05	0
    Cd(f):	0.000668259	0.000649125	1.91342e-05	0
    Cd(r):	0.000645805	0.00062732	1.84854e-05	0
    Cl:	-2.24542e-05	-2.18054e-05	-6.48794e-07	0
    Cl(f):	-1.12103e-05	-1.09027e-05	-3.07567e-07	0
    Cl(r):	-1.12439e-05	-1.09027e-05	-3.41227e-07	0
    CmPitch:	1.68301e-08	1.53602e-16	1.68301e-08	0
    CmRoll:	1.12271e-05	1.09027e-05	3.24397e-07	0
    CmYaw:	0.000657032	0.000638223	1.88098e-05	0
    Cs:	5.6881e-24	-1.59539e-23	2.1642e-23	0
    Cs(f):	0.000657032	0.000638223	1.88098e-05	0
    Cs(r):	-0.000657032	-0.000638223	-1.88098e-05	0

    writing force and moment coefficient files.

Time = 4

smoothSolver:  Solving for Ux, Initial residual = 0.0572776, Final residual = 7.91334e-13, No Iterations 74
smoothSolver:  Solving for Uy, Initial residual = 0.32876, Final residual = 8.52401e-13, No Iterations 78
GAMG:  Solving for p, Initial residual = 0.0826659, Final residual = 7.79917e-13, No Iterations 43
time step continuity errors : sum local = 2.89168e-14, global = -8.96987e-16, cumulative = 7.72128e-15
smoothSolver:  Solving for omega, Initial residual = 0.0612195, Final residual = 9.37923e-13, No Iterations 63
bounding omega, min: -0.075189 max: 63.5621 average: 0.0905168
smoothSolver:  Solving for k, Initial residual = 0.160575, Final residual = 8.04651e-13, No Iterations 73
ExecutionTime = 8.52 s  ClockTime = 8 s

forceCoeffs forceCoeffs write:
    Coefficient	Total	Pressure	Viscous	Internal
    Cd:	0.00146806	0.00142453	4.35239e-05	0
    Cd(f):	0.000753479	0.000731194	2.22851e-05	0
    Cd(r):	0.000714578	0.000693339	2.12388e-05	0
    Cl:	-3.8901e-05	-3.78547e-05	-1.04634e-06	0
    Cl(f):	-1.9395e-05	-1.89274e-05	-4.67676e-07	0
    Cl(r):	-1.9506e-05	-1.89274e-05	-5.78668e-07	0
    CmPitch:	5.54955e-08	2.35931e-16	5.54955e-08	0
    CmRoll:	1.94505e-05	1.89274e-05	5.23172e-07	0
    CmYaw:	0.000734029	0.000712267	2.17619e-05	0
    Cs:	-2.71155e-23	-2.38267e-23	-3.2888e-24	0
    Cs(f):	0.000734029	0.000712267	2.17619e-05	0
    Cs(r):	-0.000734029	-0.000712267	-2.17619e-05	0

    writing force and moment coefficient files.

Time = 5

smoothSolver:  Solving for Ux, Initial residual = 0.0371509, Final residual = 8.49145e-13, No Iterations 74
smoothSolver:  Solving for Uy, Initial residual = 0.211462, Final residual = 9.84058e-13, No Iterations 78
GAMG:  Solving for p, Initial residual = 0.0727094, Final residual = 7.71197e-13, No Iterations 41
time step continuity errors : sum local = 2.53555e-14, global = -7.61487e-16, cumulative = 6.95979e-15
smoothSolver:  Solving for omega, Initial residual = 0.030152, Final residual = 9.17567e-13, No Iterations 63
bounding omega, min: -0.0735242 max: 63.5613 average: 0.0918474
smoothSolver:  Solving for k, Initial residual = 0.123387, Final residual = 9.01642e-13, No Iterations 72
ExecutionTime = 9.29 s  ClockTime = 9 s

forceCoeffs forceCoeffs write:
    Coefficient	Total	Pressure	Viscous	Internal
    Cd:	0.00159802	0.00154923	4.87908e-05	0
    Cd(f):	0.000824356	0.000799211	2.51451e-05	0
    Cd(r):	0.000773666	0.00075002	2.36458e-05	0
    Cl:	-5.06904e-05	-4.91911e-05	-1.49932e-06	0
    Cl(f):	-2.51714e-05	-2.45956e-05	-5.75896e-07	0
    Cl(r):	-2.5519e-05	-2.45956e-05	-9.23423e-07	0
    CmPitch:	1.73764e-07	3.10399e-16	1.73764e-07	0
    CmRoll:	2.53452e-05	2.45956e-05	7.49659e-07	0
    CmYaw:	0.000799011	0.000774616	2.43954e-05	0
    Cs:	-4.42141e-23	-3.20866e-23	-1.21275e-23	0
    Cs(f):	0.000799011	0.000774616	2.43954e-05	0
    Cs(r):	-0.000799011	-0.000774616	-2.43954e-05	0

    writing force and moment coefficient files.

Time = 6

smoothSolver:  Solving for Ux, Initial residual = 0.0295591, Final residual = 9.08442e-13, No Iterations 74
smoothSolver:  Solving for Uy, Initial residual = 0.153497, Final residual = 9.768e-13, No Iterations 78
GAMG:  Solving for p, Initial residual = 0.0706397, Final residual = 8.12562e-13, No Iterations 40
time step continuity errors : sum local = 2.26422e-14, global = -7.34651e-16, cumulative = 6.22514e-15
smoothSolver:  Solving for omega, Initial residual = 0.02124, Final residual = 9.7399e-13, No Iterations 62
bounding omega, min: -0.0744143 max: 63.561 average: 0.0913924
smoothSolver:  Solving for k, Initial residual = 0.0978227, Final residual = 8.17723e-13, No Iterations 72
ExecutionTime = 10.06 s  ClockTime = 10 s

forceCoeffs forceCoeffs write:
    Coefficient	Total	Pressure	Viscous	Internal
    Cd:	0.00165204	0.00159941	5.26325e-05	0
    Cd(f):	0.000853595	0.000826349	2.72461e-05	0
    Cd(r):	0.000798444	0.000773057	2.53864e-05	0
    Cl:	-5.51513e-05	-5.32916e-05	-1.85965e-06	0
    Cl(f):	-2.72948e-05	-2.66458e-05	-6.49002e-07	0
    Cl(r):	-2.78565e-05	-2.66458e-05	-1.21065e-06	0
    CmPitch:	2.80826e-07	3.66613e-16	2.80826e-07	0
    CmRoll:	2.75756e-05	2.66458e-05	9.29827e-07	0
    CmYaw:	0.000826019	0.000799703	2.63163e-05	0
    Cs:	-5.58305e-23	-3.80032e-23	-1.78272e-23	0
    Cs(f):	0.000826019	0.000799703	2.63163e-05	0
    Cs(r):	-0.000826019	-0.000799703	-2.63163e-05	0

    writing force and moment coefficient files.

Time = 7

smoothSolver:  Solving for Ux, Initial residual = 0.0259293, Final residual = 9.6189e-13, No Iterations 74
smoothSolver:  Solving for Uy, Initial residual = 0.121196, Final residual = 9.39486e-13, No Iterations 78
GAMG:  Solving for p, Initial residual = 0.0631664, Final residual = 7.5315e-13, No Iterations 41
time step continuity errors : sum local = 1.96093e-14, global = -7.67081e-16, cumulative = 5.45806e-15
smoothSolver:  Solving for omega, Initial residual = 0.0152544, Final residual = 9.02654e-13, No Iterations 62
bounding omega, min: -0.0763469 max: 63.5609 average: 0.0918817
smoothSolver:  Solving for k, Initial residual = 0.0823508, Final residual = 9.34116e-13, No Iterations 71
ExecutionTime = 10.83 s  ClockTime = 10 s

forceCoeffs forceCoeffs write:
    Coefficient	Total	Pressure	Viscous	Internal
    Cd:	0.00164873	0.00159378	5.49492e-05	0
    Cd(f):	0.000850963	0.000822447	2.85152e-05	0
    Cd(r):	0.000797771	0.000771337	2.6434e-05	0
    Cl:	-5.31911e-05	-5.11099e-05	-2.08113e-06	0
    Cl(f):	-2.62345e-05	-2.5555e-05	-6.79568e-07	0
    Cl(r):	-2.69565e-05	-2.5555e-05	-1.40157e-06	0
    CmPitch:	3.61e-07	3.84141e-16	3.61e-07	0
    CmRoll:	2.65955e-05	2.5555e-05	1.04057e-06	0
    CmYaw:	0.000824367	0.000796892	2.74746e-05	0
    Cs:	-6.61598e-23	-4.222e-23	-2.39397e-23	0
    Cs(f):	0.000824367	0.000796892	2.74746e-05	0
    Cs(r):	-0.000824367	-0.000796892	-2.74746e-05	0

    writing force and moment coefficient files.

Time = 8

smoothSolver:  Solving for Ux, Initial residual = 0.0236233, Final residual = 7.41567e-13, No Iterations 75
smoothSolver:  Solving for Uy, Initial residual = 0.102934, Final residual = 8.91212e-13, No Iterations 78
GAMG:  Solving for p, Initial residual = 0.0492609, Final residual = 9.05292e-13, No Iterations 42
time step continuity errors : sum local = 2.6237e-14, global = -9.35637e-16, cumulative = 4.52242e-15
smoothSolver:  Solving for omega, Initial residual = 0.0140425, Final residual = 8.49779e-13, No Iterations 62
bounding omega, min: -0.0727588 max: 63.5609 average: 0.0930222
smoothSolver:  Solving for k, Initial residual = 0.071386, Final residual = 8.25982e-13, No Iterations 71
ExecutionTime = 11.6 s  ClockTime = 11 s

forceCoeffs forceCoeffs write:
    Coefficient	Total	Pressure	Viscous	Internal
    Cd:	0.00160724	0.00155133	5.59155e-05	0
    Cd(f):	0.000825556	0.000796527	2.90292e-05	0
    Cd(r):	0.000781687	0.0007548	2.68863e-05	0
    Cl:	-4.38695e-05	-4.17266e-05	-2.14288e-06	0
    Cl(f):	-2.15145e-05	-2.08633e-05	-6.51197e-07	0
    Cl(r):	-2.2355e-05	-2.08633e-05	-1.49168e-06	0
    CmPitch:	4.20243e-07	3.38065e-16	4.20243e-07	0
    CmRoll:	2.19347e-05	2.08633e-05	1.07144e-06	0
    CmYaw:	0.000803621	0.000775664	2.79578e-05	0
    Cs:	-7.36688e-23	-4.52559e-23	-2.84129e-23	0
    Cs(f):	0.000803621	0.000775664	2.79578e-05	0
    Cs(r):	-0.000803621	-0.000775664	-2.79578e-05	0

    writing force and moment coefficient files.

Time = 9

smoothSolver:  Solving for Ux, Initial residual = 0.0221148, Final residual = 7.69728e-13, No Iterations 75
smoothSolver:  Solving for Uy, Initial residual = 0.0917393, Final residual = 8.40911e-13, No Iterations 78
GAMG:  Solving for p, Initial residual = 0.04016, Final residual = 9.27145e-13, No Iterations 42
time step continuity errors : sum local = 2.95263e-14, global = -1.05692e-15, cumulative = 3.46551e-15
smoothSolver:  Solving for omega, Initial residual = 0.0126656, Final residual = 7.38444e-13, No Iterations 62
bounding omega, min: -0.0756659 max: 63.5609 average: 0.0940002
smoothSolver:  Solving for k, Initial residual = 0.0638703, Final residual = 7.38984e-13, No Iterations 71
ExecutionTime = 12.38 s  ClockTime = 12 s

forceCoeffs forceCoeffs write:
    Coefficient	Total	Pressure	Viscous	Internal
    Cd:	0.00155039	0.00149453	5.58628e-05	0
    Cd(f):	0.000790291	0.000761374	2.89173e-05	0
    Cd(r):	0.000760099	0.000733153	2.69456e-05	0
    Cl:	-3.01924e-05	-2.82207e-05	-1.9717e-06	0
    Cl(f):	-1.46764e-05	-1.41104e-05	-5.66075e-07	0
    Cl(r):	-1.5516e-05	-1.41104e-05	-1.40563e-06	0
    CmPitch:	4.19776e-07	2.90443e-16	4.19776e-07	0
    CmRoll:	1.50962e-05	1.41104e-05	9.85851e-07	0
    CmYaw:	0.000775195	0.000747264	2.79314e-05	0
    Cs:	-7.5631e-23	-4.74851e-23	-2.81459e-23	0
    Cs(f):	0.000775195	0.000747264	2.79314e-05	0
    Cs(r):	-0.000775195	-0.000747264	-2.79314e-05	0

    writing force and moment coefficient files.

Time = 10

smoothSolver:  Solving for Ux, Initial residual = 0.0209741, Final residual = 7.961e-13, No Iterations 75
smoothSolver:  Solving for Uy, Initial residual = 0.0838119, Final residual = 7.89568e-13, No Iterations 78
GAMG:  Solving for p, Initial residual = 0.0337769, Final residual = 7.07675e-13, No Iterations 40
time step continuity errors : sum local = 2.44945e-14, global = -7.71259e-16, cumulative = 2.69425e-15
smoothSolver:  Solving for omega, Initial residual = 0.0120537, Final residual = 7.68455e-13, No Iterations 62
bounding omega, min: -0.0765433 max: 63.5609 average: 0.0949686
smoothSolver:  Solving for k, Initial residual = 0.0578889, Final residual = 8.91624e-13, No Iterations 70
ExecutionTime = 13.14 s  ClockTime = 13 s

forceCoeffs forceCoeffs write:
    Coefficient	Total	Pressure	Viscous	Internal
    Cd:	0.00149322	0.00143807	5.51521e-05	0
    Cd(f):	0.000753668	0.00072531	2.83575e-05	0
    Cd(r):	0.000739551	0.000712756	2.67946e-05	0
    Cl:	-1.4117e-05	-1.25541e-05	-1.56292e-06	0
    Cl(f):	-6.70852e-06	-6.27706e-06	-4.31465e-07	0
    Cl(r):	-7.40851e-06	-6.27706e-06	-1.13145e-06	0
    CmPitch:	3.49993e-07	4.16023e-16	3.49993e-07	0
    CmRoll:	7.05852e-06	6.27706e-06	7.81458e-07	0
    CmYaw:	0.000746609	0.000719033	2.75761e-05	0
    Cs:	-7.80426e-23	-4.92538e-23	-2.87889e-23	0
    Cs(f):	0.000746609	0.000719033	2.75761e-05	0
    Cs(r):	-0.000746609	-0.000719033	-2.75761e-05	0

    writing force and moment coefficient files.

Time = 11

smoothSolver:  Solving for Ux, Initial residual = 0.0200687, Final residual = 8.21122e-13, No Iterations 75
smoothSolver:  Solving for Uy, Initial residual = 0.077394, Final residual = 7.40715e-13, No Iterations 78
GAMG:  Solving for p, Initial residual = 0.029082, Final residual = 6.8221e-13, No Iterations 42
time step continuity errors : sum local = 2.54015e-14, global = -1.08763e-15, cumulative = 1.60661e-15
smoothSolver:  Solving for omega, Initial residual = 0.0113066, Final residual = 8.49081e-13, No Iterations 61
bounding omega, min: -0.0753356 max: 63.561 average: 0.0959084
smoothSolver:  Solving for k, Initial residual = 0.0528997, Final residual = 8.04928e-13, No Iterations 70
ExecutionTime = 13.92 s  ClockTime = 14 s

forceCoeffs forceCoeffs write:
    Coefficient	Total	Pressure	Viscous	Internal
    Cd:	0.00144415	0.00139007	5.40823e-05	0
    Cd(f):	0.000718817	0.000691268	2.7549e-05	0
    Cd(r):	0.000725338	0.000698804	2.65333e-05	0
    Cl:	6.52066e-06	7.53639e-06	-1.01573e-06	0
    Cl(f):	3.53661e-06	3.7682e-06	-2.31588e-07	0
    Cl(r):	2.98405e-06	3.7682e-06	-7.84144e-07	0
    CmPitch:	2.76278e-07	1.991e-16	2.76278e-07	0
    CmRoll:	-3.26033e-06	-3.7682e-06	5.07866e-07	0
    CmYaw:	0.000722077	0.000695036	2.70412e-05	0
    Cs:	-7.9121e-23	-5.0555e-23	-2.85661e-23	0
    Cs(f):	0.000722077	0.000695036	2.70412e-05	0
    Cs(r):	-0.000722077	-0.000695036	-2.70412e-05	0

    writing force and moment coefficient files.

Time = 12

smoothSolver:  Solving for Ux, Initial residual = 0.0194005, Final residual = 8.44624e-13, No Iterations 75
smoothSolver:  Solving for Uy, Initial residual = 0.0721451, Final residual = 9.42037e-13, No Iterations 77
GAMG:  Solving for p, Initial residual = 0.0254837, Final residual = 6.46223e-13, No Iterations 42
time step continuity errors : sum local = 2.56488e-14, global = -1.09595e-15, cumulative = 5.10662e-16
smoothSolver:  Solving for omega, Initial residual = 0.0108065, Final residual = 9.58807e-13, No Iterations 61
bounding omega, min: -0.0755507 max: 63.5611 average: 0.0967848
smoothSolver:  Solving for k, Initial residual = 0.0489318, Final residual = 9.77353e-13, No Iterations 69
ExecutionTime = 14.7 s  ClockTime = 14 s

forceCoeffs forceCoeffs write:
    Coefficient	Total	Pressure	Viscous	Internal
    Cd:	0.0014108	0.0013579	5.28938e-05	0
    Cd(f):	0.000691425	0.000664789	2.66363e-05	0
    Cd(r):	0.000719372	0.000693115	2.62574e-05	0
    Cl:	2.79471e-05	2.83261e-05	-3.78912e-07	0
    Cl(f):	1.41668e-05	1.4163e-05	3.75191e-09	0
    Cl(r):	1.37804e-05	1.4163e-05	-3.82664e-07	0
    CmPitch:	1.93208e-07	-2.39583e-16	1.93208e-07	0
    CmRoll:	-1.39736e-05	-1.4163e-05	1.89456e-07	0
    CmYaw:	0.000705399	0.000678952	2.64469e-05	0
    Cs:	-7.90843e-23	-5.15192e-23	-2.75651e-23	0
    Cs(f):	0.000705399	0.000678952	2.64469e-05	0
    Cs(r):	-0.000705399	-0.000678952	-2.64469e-05	0

    writing force and moment coefficient files.

Time = 13

smoothSolver:  Solving for Ux, Initial residual = 0.0188897, Final residual = 8.66383e-13, No Iterations 75
smoothSolver:  Solving for Uy, Initial residual = 0.0678462, Final residual = 8.76249e-13, No Iterations 77
GAMG:  Solving for p, Initial residual = 0.0226098, Final residual = 5.71951e-13, No Iterations 42
time step continuity errors : sum local = 2.4005e-14, global = -1.02334e-15, cumulative = -5.12677e-16
smoothSolver:  Solving for omega, Initial residual = 0.0103458, Final residual = 9.37824e-13, No Iterations 60
bounding omega, min: -0.0756311 max: 63.5614 average: 0.0976447
smoothSolver:  Solving for k, Initial residual = 0.0456096, Final residual = 8.78062e-13, No Iterations 69
ExecutionTime = 15.48 s  ClockTime = 15 s

forceCoeffs forceCoeffs write:
    Coefficient	Total	Pressure	Viscous	Internal
    Cd:	0.00139781	0.001346	5.18111e-05	0
    Cd(f):	0.000674417	0.000648646	2.57711e-05	0
    Cd(r):	0.000723391	0.000697352	2.60399e-05	0
    Cl:	4.8974e-05	4.87052e-05	2.68792e-07	0
    Cl(f):	2.46234e-05	2.43526e-05	2.70834e-07	0
    Cl(r):	2.43506e-05	2.43526e-05	-2.04255e-09	0
    CmPitch:	1.36438e-07	-4.90854e-16	1.36438e-07	0
    CmRoll:	-2.4487e-05	-2.43526e-05	-1.34396e-07	0
    CmYaw:	0.000698904	0.000672999	2.59055e-05	0
    Cs:	-7.82292e-23	-5.21475e-23	-2.60817e-23	0
    Cs(f):	0.000698904	0.000672999	2.59055e-05	0
    Cs(r):	-0.000698904	-0.000672999	-2.59055e-05	0

    writing force and moment coefficient files.

Time = 14

smoothSolver:  Solving for Ux, Initial residual = 0.0184818, Final residual = 8.87156e-13, No Iterations 75
smoothSolver:  Solving for Uy, Initial residual = 0.0638274, Final residual = 8.10397e-13, No Iterations 77
GAMG:  Solving for p, Initial residual = 0.0203388, Final residual = 8.6246e-13, No Iterations 41
time step continuity errors : sum local = 3.79026e-14, global = -1.35047e-15, cumulative = -1.86315e-15
smoothSolver:  Solving for omega, Initial residual = 0.0099124, Final residual = 7.6971e-13, No Iterations 61
bounding omega, min: -0.0768006 max: 63.5619 average: 0.0984769
smoothSolver:  Solving for k, Initial residual = 0.0427202, Final residual = 7.94815e-13, No Iterations 69
ExecutionTime = 16.24 s  ClockTime = 16 s

forceCoeffs forceCoeffs write:
    Coefficient	Total	Pressure	Viscous	Internal
    Cd:	0.00140661	0.00135571	5.09025e-05	0
    Cd(f):	0.000667545	0.000642559	2.49853e-05	0
    Cd(r):	0.000739067	0.00071315	2.59171e-05	0
    Cl:	7.15225e-05	7.05907e-05	9.31797e-07	0
    Cl(f):	3.58444e-05	3.52954e-05	5.49056e-07	0
    Cl(r):	3.56781e-05	3.52954e-05	3.8274e-07	0
    CmPitch:	8.3158e-08	-6.50818e-16	8.3158e-08	0
    CmRoll:	-3.57613e-05	-3.52954e-05	-4.65898e-07	0
    CmYaw:	0.000703306	0.000677855	2.54512e-05	0
    Cs:	-7.74135e-23	-5.23649e-23	-2.50487e-23	0
    Cs(f):	0.000703306	0.000677855	2.54512e-05	0
    Cs(r):	-0.000703306	-0.000677855	-2.54512e-05	0

    writing force and moment coefficient files.

Time = 15

smoothSolver:  Solving for Ux, Initial residual = 0.0181733, Final residual = 9.05162e-13, No Iterations 75
smoothSolver:  Solving for Uy, Initial residual = 0.0599996, Final residual = 7.44441e-13, No Iterations 77
GAMG:  Solving for p, Initial residual = 0.018516, Final residual = 7.16248e-13, No Iterations 41
time step continuity errors : sum local = 3.27207e-14, global = -1.1817e-15, cumulative = -3.04485e-15
smoothSolver:  Solving for omega, Initial residual = 0.00948929, Final residual = 7.66244e-13, No Iterations 60
bounding omega, min: -0.075411 max: 63.5627 average: 0.0992642
smoothSolver:  Solving for k, Initial residual = 0.0401038, Final residual = 9.9724e-13, No Iterations 68
ExecutionTime = 17 s  ClockTime = 17 s

forceCoeffs forceCoeffs write:
    Coefficient	Total	Pressure	Viscous	Internal
    Cd:	0.00143544	0.00138507	5.03738e-05	0
    Cd(f):	0.000671206	0.000646802	2.44047e-05	0
    Cd(r):	0.000764234	0.000738265	2.59691e-05	0
    Cl:	9.30279e-05	9.14635e-05	1.56439e-06	0
    Cl(f):	4.65313e-05	4.57317e-05	7.99605e-07	0
    Cl(r):	4.64965e-05	4.57317e-05	7.6479e-07	0
    CmPitch:	1.74074e-08	-5.0255e-16	1.74074e-08	0
    CmRoll:	-4.65139e-05	-4.57317e-05	-7.82197e-07	0
    CmYaw:	0.00071772	0.000692533	2.51869e-05	0
    Cs:	-7.56682e-23	-5.2236e-23	-2.34322e-23	0
    Cs(f):	0.00071772	0.000692533	2.51869e-05	0
    Cs(r):	-0.00071772	-0.000692533	-2.51869e-05	0

    writing force and moment coefficient files.

Time = 16

smoothSolver:  Solving for Ux, Initial residual = 0.0179768, Final residual = 9.17591e-13, No Iterations 75
smoothSolver:  Solving for Uy, Initial residual = 0.05621, Final residual = 9.35006e-13, No Iterations 76
GAMG:  Solving for p, Initial residual = 0.0170903, Final residual = 9.35883e-13, No Iterations 40
time step continuity errors : sum local = 4.40413e-14, global = -1.88229e-15, cumulative = -4.92714e-15
smoothSolver:  Solving for omega, Initial residual = 0.00921538, Final residual = 7.73967e-13, No Iterations 60
bounding omega, min: -0.0759097 max: 63.5638 average: 0.100002
smoothSolver:  Solving for k, Initial residual = 0.0376334, Final residual = 9.05456e-13, No Iterations 68
ExecutionTime = 17.75 s  ClockTime = 17 s

forceCoeffs forceCoeffs write:
    Coefficient	Total	Pressure	Viscous	Internal
    Cd:	0.00148007	0.00142975	5.0321e-05	0
    Cd(f):	0.000682209	0.000658101	2.41084e-05	0
    Cd(r):	0.000797862	0.00077165	2.62126e-05	0
    Cl:	0.000115653	0.000113549	2.10425e-06	0
    Cl(f):	5.778e-05	5.67746e-05	1.00542e-06	0
    Cl(r):	5.78734e-05	5.67746e-05	1.09882e-06	0
    CmPitch:	-4.67012e-08	-8.55572e-17	-4.67012e-08	0
    CmRoll:	-5.78267e-05	-5.67746e-05	-1.05212e-06	0
    CmYaw:	0.000740036	0.000714875	2.51605e-05	0
    Cs:	-7.37704e-23	-5.1693e-23	-2.20774e-23	0
    Cs(f):	0.000740036	0.000714875	2.51605e-05	0
    Cs(r):	-0.000740036	-0.000714875	-2.51605e-05	0

    writing force and moment coefficient files.

Time = 17

smoothSolver:  Solving for Ux, Initial residual = 0.017906, Final residual = 9.24467e-13, No Iterations 75
smoothSolver:  Solving for Uy, Initial residual = 0.0525005, Final residual = 8.68565e-13, No Iterations 76
GAMG:  Solving for p, Initial residual = 0.0159923, Final residual = 7.61186e-13, No Iterations 40
time step continuity errors : sum local = 3.66042e-14, global = -1.57364e-15, cumulative = -6.50078e-15
smoothSolver:  Solving for omega, Initial residual = 0.00888495, Final residual = 8.49475e-13, No Iterations 59
bounding omega, min: -0.0771189 max: 63.5653 average: 0.100686
smoothSolver:  Solving for k, Initial residual = 0.0353287, Final residual = 8.3883e-13, No Iterations 68
ExecutionTime = 18.49 s  ClockTime = 18 s

forceCoeffs forceCoeffs write:
    Coefficient	Total	Pressure	Viscous	Internal
    Cd:	0.00153529	0.00148441	5.08731e-05	0
    Cd(f):	0.000699528	0.000675367	2.41609e-05	0
    Cd(r):	0.000835758	0.000809045	2.67122e-05	0
    Cl:	0.00013623	0.000133678	2.5513e-06	0
    Cl(f):	6.80016e-05	6.68391e-05	1.16246e-06	0
    Cl(r):	6.8228e-05	6.68391e-05	1.38884e-06	0
    CmPitch:	-1.13188e-07	2.84857e-16	-1.13188e-07	0
    CmRoll:	-6.81148e-05	-6.68391e-05	-1.27565e-06	0
    CmYaw:	0.000767643	0.000742206	2.54365e-05	0
    Cs:	-7.06017e-23	-5.09412e-23	-1.96605e-23	0
    Cs(f):	0.000767643	0.000742206	2.54365e-05	0
    Cs(r):	-0.000767643	-0.000742206	-2.54365e-05	0

    writing force and moment coefficient files.

Time = 18

smoothSolver:  Solving for Ux, Initial residual = 0.0178764, Final residual = 9.26318e-13, No Iterations 75
smoothSolver:  Solving for Uy, Initial residual = 0.0490216, Final residual = 8.19952e-13, No Iterations 76
GAMG:  Solving for p, Initial residual = 0.0152, Final residual = 6.08741e-13, No Iterations 40
time step continuity errors : sum local = 2.96476e-14, global = -1.30287e-15, cumulative = -7.80365e-15
smoothSolver:  Solving for omega, Initial residual = 0.00862509, Final residual = 7.65949e-13, No Iterations 59
bounding omega, min: -0.0754134 max: 63.5672 average: 0.101322
smoothSolver:  Solving for k, Initial residual = 0.0334103, Final residual = 7.58511e-13, No Iterations 68
ExecutionTime = 19.26 s  ClockTime = 19 s

forceCoeffs forceCoeffs write:
    Coefficient	Total	Pressure	Viscous	Internal
    Cd:	0.00159318	0.00154127	5.19127e-05	0
    Cd(f):	0.000718669	0.00069416	2.45094e-05	0
    Cd(r):	0.00087451	0.000847106	2.74032e-05	0
    Cl:	0.00015584	0.000152946	2.89377e-06	0
    Cl(f):	7.77721e-05	7.64732e-05	1.29893e-06	0
    Cl(r):	7.8068e-05	7.64732e-05	1.59484e-06	0
    CmPitch:	-1.47953e-07	3.51553e-16	-1.47953e-07	0
    CmRoll:	-7.79201e-05	-7.64732e-05	-1.44689e-06	0
    CmYaw:	0.000796589	0.000770633	2.59563e-05	0
    Cs:	-6.77739e-23	-4.99495e-23	-1.78244e-23	0
    Cs(f):	0.000796589	0.000770633	2.59563e-05	0
    Cs(r):	-0.000796589	-0.000770633	-2.59563e-05	0

    writing force and moment coefficient files.

Time = 19

smoothSolver:  Solving for Ux, Initial residual = 0.0178338, Final residual = 9.24219e-13, No Iterations 75
smoothSolver:  Solving for Uy, Initial residual = 0.0457832, Final residual = 7.88823e-13, No Iterations 76
GAMG:  Solving for p, Initial residual = 0.0145964, Final residual = 6.7464e-13, No Iterations 41
time step continuity errors : sum local = 3.30187e-14, global = -1.2572e-15, cumulative = -9.06084e-15
smoothSolver:  Solving for omega, Initial residual = 0.00839489, Final residual = 8.52758e-13, No Iterations 58
bounding omega, min: -0.0760278 max: 63.5695 average: 0.101775
smoothSolver:  Solving for k, Initial residual = 0.0317148, Final residual = 9.98386e-13, No Iterations 67
ExecutionTime = 20.01 s  ClockTime = 20 s

forceCoeffs forceCoeffs write:
    Coefficient	Total	Pressure	Viscous	Internal
    Cd:	0.00164773	0.00159478	5.29514e-05	0
    Cd(f):	0.000736962	0.000712059	2.49025e-05	0
    Cd(r):	0.000910771	0.000882722	2.80489e-05	0
    Cl:	0.000173809	0.000170662	3.14646e-06	0
    Cl(f):	8.67877e-05	8.53312e-05	1.45652e-06	0
    Cl(r):	8.70212e-05	8.53312e-05	1.68994e-06	0
    CmPitch:	-1.16708e-07	1.01629e-16	-1.16708e-07	0
    CmRoll:	-8.69044e-05	-8.53312e-05	-1.57323e-06	0
    CmYaw:	0.000823866	0.000797391	2.64757e-05	0
    Cs:	-6.5619e-23	-4.87574e-23	-1.68616e-23	0
    Cs(f):	0.000823866	0.000797391	2.64757e-05	0
    Cs(r):	-0.000823866	-0.000797391	-2.64757e-05	0

    writing force and moment coefficient files.

Time = 20

smoothSolver:  Solving for Ux, Initial residual = 0.0177564, Final residual = 9.1882e-13, No Iterations 75
smoothSolver:  Solving for Uy, Initial residual = 0.0428752, Final residual = 7.73058e-13, No Iterations 76
GAMG:  Solving for p, Initial residual = 0.014149, Final residual = 8.51308e-13, No Iterations 40
time step continuity errors : sum local = 4.15378e-14, global = 1.35014e-15, cumulative = -7.7107e-15
smoothSolver:  Solving for omega, Initial residual = 0.00821258, Final residual = 7.36043e-13, No Iterations 58
bounding omega, min: -0.0757887 max: 63.5719 average: 0.102125
smoothSolver:  Solving for k, Initial residual = 0.02995, Final residual = 8.96083e-13, No Iterations 67
ExecutionTime = 20.76 s  ClockTime = 20 s

forceCoeffs forceCoeffs write:
    Coefficient	Total	Pressure	Viscous	Internal
    Cd:	0.00169379	0.00163986	5.39329e-05	0
    Cd(f):	0.000751838	0.000726584	2.5254e-05	0
    Cd(r):	0.00094195	0.000913271	2.86789e-05	0
    Cl:	0.000190113	0.000186688	3.42486e-06	0
    Cl(f):	9.49229e-05	9.33439e-05	1.57902e-06	0
    Cl(r):	9.51897e-05	9.33439e-05	1.84584e-06	0
    CmPitch:	-1.33409e-07	-1.19141e-16	-1.33409e-07	0
    CmRoll:	-9.50563e-05	-9.33439e-05	-1.71243e-06	0
    CmYaw:	0.000846894	0.000819928	2.69665e-05	0
    Cs:	-6.22735e-23	-4.73796e-23	-1.48939e-23	0
    Cs(f):	0.000846894	0.000819928	2.69665e-05	0
    Cs(r):	-0.000846894	-0.000819928	-2.69665e-05	0

    writing force and moment coefficient files.

Time = 21

smoothSolver:  Solving for Ux, Initial residual = 0.0176249, Final residual = 9.10934e-13, No Iterations 75
smoothSolver:  Solving for Uy, Initial residual = 0.0403012, Final residual = 7.68003e-13, No Iterations 76
GAMG:  Solving for p, Initial residual = 0.0138346, Final residual = 7.4085e-13, No Iterations 40
time step continuity errors : sum local = 3.58332e-14, global = 1.16315e-15, cumulative = -6.54755e-15
smoothSolver:  Solving for omega, Initial residual = 0.00797195, Final residual = 8.81855e-13, No Iterations 57
bounding omega, min: -0.077121 max: 63.5744 average: 0.102401
smoothSolver:  Solving for k, Initial residual = 0.0286375, Final residual = 8.73626e-13, No Iterations 67
ExecutionTime = 21.53 s  ClockTime = 21 s

forceCoeffs forceCoeffs write:
    Coefficient	Total	Pressure	Viscous	Internal
    Cd:	0.0017285	0.00167356	5.49447e-05	0
    Cd(f):	0.000760537	0.000734885	2.56521e-05	0
    Cd(r):	0.000967966	0.000938673	2.92927e-05	0
    Cl:	0.000207428	0.000203788	3.64062e-06	0
    Cl(f):	0.000103629	0.000101894	1.73523e-06	0
    Cl(r):	0.000103799	0.000101894	1.90539e-06	0
    CmPitch:	-8.50815e-08	-2.73077e-16	-8.50815e-08	0
    CmRoll:	-0.000103714	-0.000101894	-1.82031e-06	0
    CmYaw:	0.000864251	0.000836779	2.74724e-05	0
    Cs:	-5.9196e-23	-4.58894e-23	-1.33066e-23	0
    Cs(f):	0.000864251	0.000836779	2.74724e-05	0
    Cs(r):	-0.000864251	-0.000836779	-2.74724e-05	0

    writing force and moment coefficient files.

Time = 22

smoothSolver:  Solving for Ux, Initial residual = 0.0174342, Final residual = 9.01732e-13, No Iterations 75
smoothSolver:  Solving for Uy, Initial residual = 0.0381572, Final residual = 7.70466e-13, No Iterations 76
GAMG:  Solving for p, Initial residual = 0.0136709, Final residual = 6.74566e-13, No Iterations 40
time step continuity errors : sum local = 3.21417e-14, global = 1.0202e-15, cumulative = -5.52735e-15
smoothSolver:  Solving for omega, Initial residual = 0.00768315, Final residual = 7.34399e-13, No Iterations 57
bounding omega, min: -0.0755701 max: 63.5768 average: 0.102762
smoothSolver:  Solving for k, Initial residual = 0.0271487, Final residual = 8.05946e-13, No Iterations 67
ExecutionTime = 22.45 s  ClockTime = 22 s

forceCoeffs forceCoeffs write:
    Coefficient	Total	Pressure	Viscous	Internal
    Cd:	0.00175041	0.00169426	5.61514e-05	0
    Cd(f):	0.000763434	0.000737288	2.61463e-05	0
    Cd(r):	0.000986975	0.00095697	3.00051e-05	0
    Cl:	0.000223541	0.000219682	3.85885e-06	0
    Cl(f):	0.000111706	0.000109841	1.86446e-06	0
    Cl(r):	0.000111835	0.000109841	1.99439e-06	0
    CmPitch:	-6.49616e-08	-3.32365e-16	-6.49616e-08	0
    CmRoll:	-0.00011177	-0.000109841	-1.92942e-06	0
    CmYaw:	0.000875205	0.000847129	2.80757e-05	0
    Cs:	-5.67786e-23	-4.44271e-23	-1.23515e-23	0
    Cs(f):	0.000875205	0.000847129	2.80757e-05	0
    Cs(r):	-0.000875205	-0.000847129	-2.80757e-05	0

    writing force and moment coefficient files.

Time = 23

smoothSolver:  Solving for Ux, Initial residual = 0.0172011, Final residual = 8.91809e-13, No Iterations 75
smoothSolver:  Solving for Uy, Initial residual = 0.0363138, Final residual = 7.77029e-13, No Iterations 76
GAMG:  Solving for p, Initial residual = 0.0135569, Final residual = 9.42959e-13, No Iterations 39
time step continuity errors : sum local = 4.40952e-14, global = 1.47227e-15, cumulative = -4.05509e-15
smoothSolver:  Solving for omega, Initial residual = 0.00746343, Final residual = 8.34668e-13, No Iterations 56
bounding omega, min: -0.0761888 max: 63.5789 average: 0.103204
smoothSolver:  Solving for k, Initial residual = 0.0257542, Final residual = 7.71824e-13, No Iterations 67
ExecutionTime = 23.29 s  ClockTime = 23 s

forceCoeffs forceCoeffs write:
    Coefficient	Total	Pressure	Viscous	Internal
    Cd:	0.00175913	0.00170175	5.73777e-05	0
    Cd(f):	0.000760815	0.000734173	2.66413e-05	0
    Cd(r):	0.000998317	0.000967581	3.07364e-05	0
    Cl:	0.000237503	0.000233408	4.09508e-06	0
    Cl(f):	0.000118721	0.000116704	2.01685e-06	0
    Cl(r):	0.000118782	0.000116704	2.07823e-06	0
    CmPitch:	-3.06924e-08	-3.39733e-16	-3.06924e-08	0
    CmRoll:	-0.000118751	-0.000116704	-2.04754e-06	0
    CmYaw:	0.000879566	0.000850877	2.86889e-05	0
    Cs:	-5.4297e-23	-4.31097e-23	-1.11872e-23	0
    Cs(f):	0.000879566	0.000850877	2.86889e-05	0
    Cs(r):	-0.000879566	-0.000850877	-2.86889e-05	0

    writing force and moment coefficient files.

Time = 24

smoothSolver:  Solving for Ux, Initial residual = 0.0169291, Final residual = 8.81627e-13, No Iterations 75
smoothSolver:  Solving for Uy, Initial residual = 0.0347633, Final residual = 7.83088e-13, No Iterations 76
GAMG:  Solving for p, Initial residual = 0.0134341, Final residual = 7.71374e-13, No Iterations 39
time step continuity errors : sum local = 3.53e-14, global = 1.14044e-15, cumulative = -2.91465e-15
smoothSolver:  Solving for omega, Initial residual = 0.00723311, Final residual = 8.26848e-13, No Iterations 55
bounding omega, min: -0.0771058 max: 63.5806 average: 0.103553
smoothSolver:  Solving for k, Initial residual = 0.0243687, Final residual = 7.27864e-13, No Iterations 67
ExecutionTime = 24.1 s  ClockTime = 24 s

forceCoeffs forceCoeffs write:
    Coefficient	Total	Pressure	Viscous	Internal
    Cd:	0.00175574	0.00169749	5.82488e-05	0
    Cd(f):	0.000753425	0.0007265	2.69247e-05	0
    Cd(r):	0.00100231	0.000970986	3.13241e-05	0
    Cl:	0.000248885	0.000244486	4.39942e-06	0
    Cl(f):	0.000124428	0.000122243	2.18525e-06	0
    Cl(r):	0.000124457	0.000122243	2.21417e-06	0
    CmPitch:	-1.44602e-08	-3.3879e-16	-1.44602e-08	0
    CmRoll:	-0.000124443	-0.000122243	-2.19971e-06	0
    CmYaw:	0.000877868	0.000848743	2.91244e-05	0
    Cs:	-5.23927e-23	-4.19327e-23	-1.046e-23	0
    Cs(f):	0.000877868	0.000848743	2.91244e-05	0
    Cs(r):	-0.000877868	-0.000848743	-2.91244e-05	0

    writing force and moment coefficient files.

Time = 25

smoothSolver:  Solving for Ux, Initial residual = 0.0166402, Final residual = 8.71857e-13, No Iterations 75
smoothSolver:  Solving for Uy, Initial residual = 0.0334387, Final residual = 7.87284e-13, No Iterations 76
GAMG:  Solving for p, Initial residual = 0.0133311, Final residual = 8.35318e-13, No Iterations 38
time step continuity errors : sum local = 3.73382e-14, global = 1.02839e-15, cumulative = -1.88625e-15
smoothSolver:  Solving for omega, Initial residual = 0.00696513, Final residual = 8.82812e-13, No Iterations 54
bounding omega, min: -0.0757796 max: 63.5818 average: 0.103991
smoothSolver:  Solving for k, Initial residual = 0.0230633, Final residual = 9.71102e-13, No Iterations 66
ExecutionTime = 24.88 s  ClockTime = 25 s

forceCoeffs forceCoeffs write:
    Coefficient	Total	Pressure	Viscous	Internal
    Cd:	0.00174255	0.00168369	5.88634e-05	0
    Cd(f):	0.000742588	0.000715514	2.70735e-05	0
    Cd(r):	0.000999962	0.000968173	3.17899e-05	0
    Cl:	0.000257374	0.000252658	4.71635e-06	0
    Cl(f):	0.000128692	0.000126329	2.36266e-06	0
    Cl(r):	0.000128683	0.000126329	2.35369e-06	0
    CmPitch:	4.4851e-09	-3.66711e-16	4.4851e-09	0
    CmRoll:	-0.000128687	-0.000126329	-2.35818e-06	0
    CmYaw:	0.000871275	0.000841844	2.94317e-05	0
    Cs:	-5.0927e-23	-4.08888e-23	-1.00382e-23	0
    Cs(f):	0.000871275	0.000841844	2.94317e-05	0
    Cs(r):	-0.000871275	-0.000841844	-2.94317e-05	0

    writing force and moment coefficient files.

Time = 26

smoothSolver:  Solving for Ux, Initial residual = 0.0163409, Final residual = 8.6307e-13, No Iterations 75
smoothSolver:  Solving for Uy, Initial residual = 0.0323334, Final residual = 7.88805e-13, No Iterations 76
GAMG:  Solving for p, Initial residual = 0.0132706, Final residual = 9.8578e-13, No Iterations 38
time step continuity errors : sum local = 4.29683e-14, global = 1.24377e-15, cumulative = -6.42483e-16
smoothSolver:  Solving for omega, Initial residual = 0.00686622, Final residual = 7.65749e-13, No Iterations 54
bounding omega, min: -0.0760423 max: 63.5823 average: 0.10439
smoothSolver:  Solving for k, Initial residual = 0.0221211, Final residual = 9.22667e-13, No Iterations 66
ExecutionTime = 25.67 s  ClockTime = 25 s

forceCoeffs forceCoeffs write:
    Coefficient	Total	Pressure	Viscous	Internal
    Cd:	0.00172297	0.00166388	5.90884e-05	0
    Cd(f):	0.000729948	0.000702951	2.69966e-05	0
    Cd(r):	0.000993024	0.000960932	3.20918e-05	0
    Cl:	0.000263076	0.000257981	5.09525e-06	0
    Cl(f):	0.000131498	0.00012899	2.50736e-06	0
    Cl(r):	0.000131578	0.00012899	2.58789e-06	0
    CmPitch:	-4.02672e-08	-4.37957e-16	-4.02672e-08	0
    CmRoll:	-0.000131538	-0.00012899	-2.54763e-06	0
    CmYaw:	0.000861486	0.000831941	2.95442e-05	0
    Cs:	-4.96558e-23	-3.99334e-23	-9.72245e-24	0
    Cs(f):	0.000861486	0.000831941	2.95442e-05	0
    Cs(r):	-0.000861486	-0.000831941	-2.95442e-05	0

    writing force and moment coefficient files.

Time = 27

smoothSolver:  Solving for Ux, Initial residual = 0.0160342, Final residual = 8.55578e-13, No Iterations 75
smoothSolver:  Solving for Uy, Initial residual = 0.0314604, Final residual = 7.88016e-13, No Iterations 76
GAMG:  Solving for p, Initial residual = 0.0131878, Final residual = 7.83214e-13, No Iterations 39
time step continuity errors : sum local = 3.32695e-14, global = 9.00787e-16, cumulative = 2.58304e-16
smoothSolver:  Solving for omega, Initial residual = 0.00655983, Final residual = 7.247e-13, No Iterations 54
bounding omega, min: -0.0773094 max: 63.5822 average: 0.104821
smoothSolver:  Solving for k, Initial residual = 0.0210114, Final residual = 8.92649e-13, No Iterations 66
ExecutionTime = 26.46 s  ClockTime = 26 s

forceCoeffs forceCoeffs write:
    Coefficient	Total	Pressure	Viscous	Internal
    Cd:	0.00170105	0.00164198	5.9067e-05	0
    Cd(f):	0.000717486	0.000690693	2.67935e-05	0
    Cd(r):	0.000983563	0.00095129	3.22734e-05	0
    Cl:	0.000266077	0.000260597	5.47989e-06	0
    Cl(f):	0.000132931	0.000130299	2.63286e-06	0
    Cl(r):	0.000133146	0.000130299	2.84703e-06	0
    CmPitch:	-1.07087e-07	-5.11831e-16	-1.07087e-07	0
    CmRoll:	-0.000133038	-0.000130299	-2.73994e-06	0
    CmYaw:	0.000850525	0.000820991	2.95335e-05	0
    Cs:	-4.90473e-23	-3.90647e-23	-9.98262e-24	0
    Cs(f):	0.000850525	0.000820991	2.95335e-05	0
    Cs(r):	-0.000850525	-0.000820991	-2.95335e-05	0

    writing force and moment coefficient files.

Time = 28

smoothSolver:  Solving for Ux, Initial residual = 0.0157315, Final residual = 8.48486e-13, No Iterations 75
smoothSolver:  Solving for Uy, Initial residual = 0.0307906, Final residual = 7.83308e-13, No Iterations 76
GAMG:  Solving for p, Initial residual = 0.0130613, Final residual = 8.75803e-13, No Iterations 39
time step continuity errors : sum local = 3.62411e-14, global = 9.68674e-16, cumulative = 1.22698e-15
smoothSolver:  Solving for omega, Initial residual = 0.0063854, Final residual = 7.58261e-13, No Iterations 54
bounding omega, min: -0.0758613 max: 63.5814 average: 0.105224
smoothSolver:  Solving for k, Initial residual = 0.0201492, Final residual = 8.40451e-13, No Iterations 66
ExecutionTime = 27.31 s  ClockTime = 27 s

forceCoeffs forceCoeffs write:
    Coefficient	Total	Pressure	Viscous	Internal
    Cd:	0.00167955	0.00162064	5.89066e-05	0
    Cd(f):	0.000706328	0.000679791	2.65361e-05	0
    Cd(r):	0.000973218	0.000940848	3.23705e-05	0
    Cl:	0.000266891	0.000261056	5.83444e-06	0
    Cl(f):	0.000133255	0.000130528	2.72701e-06	0
    Cl(r):	0.000133636	0.000130528	3.10743e-06	0
    CmPitch:	-1.9021e-07	-5.72931e-16	-1.9021e-07	0
    CmRoll:	-0.000133445	-0.000130528	-2.91722e-06	0
    CmYaw:	0.000839773	0.00081032	2.94533e-05	0
    Cs:	-4.76707e-23	-3.82207e-23	-9.44998e-24	0
    Cs(f):	0.000839773	0.00081032	2.94533e-05	0
    Cs(r):	-0.000839773	-0.00081032	-2.94533e-05	0

    writing force and moment coefficient files.

Time = 29

smoothSolver:  Solving for Ux, Initial residual = 0.0154324, Final residual = 8.41869e-13, No Iterations 75
smoothSolver:  Solving for Uy, Initial residual = 0.0301639, Final residual = 7.76786e-13, No Iterations 76
GAMG:  Solving for p, Initial residual = 0.0129012, Final residual = 9.36546e-13, No Iterations 39
time step continuity errors : sum local = 3.77898e-14, global = 9.97007e-16, cumulative = 2.22398e-15
smoothSolver:  Solving for omega, Initial residual = 0.0061075, Final residual = 7.61746e-13, No Iterations 54
bounding omega, min: -0.0761656 max: 63.58 average: 0.105676
smoothSolver:  Solving for k, Initial residual = 0.0192641, Final residual = 7.91161e-13, No Iterations 66
ExecutionTime = 28.08 s  ClockTime = 28 s

forceCoeffs forceCoeffs write:
    Coefficient	Total	Pressure	Viscous	Internal
    Cd:	0.00166056	0.00160181	5.87509e-05	0
    Cd(f):	0.000697166	0.00067086	2.6306e-05	0
    Cd(r):	0.000963395	0.00093095	3.24449e-05	0
    Cl:	0.000266229	0.00026009	6.13883e-06	0
    Cl(f):	0.000132843	0.000130045	2.79751e-06	0
    Cl(r):	0.000133386	0.000130045	3.34132e-06	0
    CmPitch:	-2.71902e-07	-5.89848e-16	-2.71902e-07	0
    CmRoll:	-0.000133114	-0.000130045	-3.06941e-06	0
    CmYaw:	0.00083028	0.000800905	2.93755e-05	0
    Cs:	-4.67852e-23	-3.73832e-23	-9.40207e-24	0
    Cs(f):	0.00083028	0.000800905	2.93755e-05	0
    Cs(r):	-0.00083028	-0.000800905	-2.93755e-05	0

    writing force and moment coefficient files.

Time = 30

smoothSolver:  Solving for Ux, Initial residual = 0.0151458, Final residual = 8.35446e-13, No Iterations 75
smoothSolver:  Solving for Uy, Initial residual = 0.0296141, Final residual = 7.68375e-13, No Iterations 76
GAMG:  Solving for p, Initial residual = 0.0127059, Final residual = 9.82835e-13, No Iterations 39
time step continuity errors : sum local = 3.86886e-14, global = 1.01019e-15, cumulative = 3.23417e-15
smoothSolver:  Solving for omega, Initial residual = 0.00594238, Final residual = 8.05796e-13, No Iterations 54
bounding omega, min: -0.0758579 max: 63.578 average: 0.106118
smoothSolver:  Solving for k, Initial residual = 0.0184602, Final residual = 7.71495e-13, No Iterations 66
ExecutionTime = 28.92 s  ClockTime = 29 s

forceCoeffs forceCoeffs write:
    Coefficient	Total	Pressure	Viscous	Internal
    Cd:	0.00164543	0.00158683	5.86001e-05	0
    Cd(f):	0.000690618	0.000664512	2.61062e-05	0
    Cd(r):	0.000954814	0.00092232	3.24939e-05	0
    Cl:	0.000264196	0.000257809	6.38768e-06	0
    Cl(f):	0.000131742	0.000128904	2.8376e-06	0
    Cl(r):	0.000132454	0.000128904	3.55007e-06	0
    CmPitch:	-3.56235e-07	-5.46093e-16	-3.56235e-07	0
    CmRoll:	-0.000132098	-0.000128904	-3.19384e-06	0
    CmYaw:	0.000822716	0.000793416	2.93001e-05	0
    Cs:	-4.62399e-23	-3.65662e-23	-9.67375e-24	0
    Cs(f):	0.000822716	0.000793416	2.93001e-05	0
    Cs(r):	-0.000822716	-0.000793416	-2.93001e-05	0

    writing force and moment coefficient files.

Time = 31

smoothSolver:  Solving for Ux, Initial residual = 0.014866, Final residual = 8.28887e-13, No Iterations 75
smoothSolver:  Solving for Uy, Initial residual = 0.0290234, Final residual = 7.57595e-13, No Iterations 76
GAMG:  Solving for p, Initial residual = 0.0124721, Final residual = 6.02178e-13, No Iterations 40
time step continuity errors : sum local = 2.31533e-14, global = 6.23905e-16, cumulative = 3.85808e-15
smoothSolver:  Solving for omega, Initial residual = 0.00564944, Final residual = 8.45225e-13, No Iterations 54
bounding omega, min: -0.0771946 max: 63.5758 average: 0.106602
smoothSolver:  Solving for k, Initial residual = 0.0176967, Final residual = 7.67817e-13, No Iterations 66
ExecutionTime = 30.02 s  ClockTime = 30 s

forceCoeffs forceCoeffs write:
    Coefficient	Total	Pressure	Viscous	Internal
    Cd:	0.00163551	0.00157695	5.85649e-05	0
    Cd(f):	0.000686907	0.000660904	2.60027e-05	0
    Cd(r):	0.000948607	0.000916044	3.25623e-05	0
    Cl:	0.0002617	0.00025514	6.55958e-06	0
    Cl(f):	0.000130429	0.00012757	2.85909e-06	0
    Cl(r):	0.000131271	0.00012757	3.70048e-06	0
    CmPitch:	-4.20696e-07	-4.44331e-16	-4.20696e-07	0
    CmRoll:	-0.00013085	-0.00012757	-3.27979e-06	0
    CmYaw:	0.000817757	0.000788474	2.92825e-05	0
    Cs:	-4.5464e-23	-3.57414e-23	-9.72259e-24	0
    Cs(f):	0.000817757	0.000788474	2.92825e-05	0
    Cs(r):	-0.000817757	-0.000788474	-2.92825e-05	0

    writing force and moment coefficient files.

Time = 32

smoothSolver:  Solving for Ux, Initial residual = 0.0145928, Final residual = 8.22589e-13, No Iterations 75
smoothSolver:  Solving for Uy, Initial residual = 0.0283832, Final residual = 7.47062e-13, No Iterations 76
GAMG:  Solving for p, Initial residual = 0.0122097, Final residual = 6.15969e-13, No Iterations 40
time step continuity errors : sum local = 2.31566e-14, global = 6.18347e-16, cumulative = 4.47642e-15
smoothSolver:  Solving for omega, Initial residual = 0.00542297, Final residual = 9.0575e-13, No Iterations 54
bounding omega, min: -0.0756224 max: 63.5735 average: 0.107116
smoothSolver:  Solving for k, Initial residual = 0.0170948, Final residual = 7.62803e-13, No Iterations 66
ExecutionTime = 30.89 s  ClockTime = 31 s

forceCoeffs forceCoeffs write:
    Coefficient	Total	Pressure	Viscous	Internal
    Cd:	0.00163028	0.00157169	5.85872e-05	0
    Cd(f):	0.000686003	0.000660048	2.59553e-05	0
    Cd(r):	0.000944273	0.000911641	3.26318e-05	0
    Cl:	0.00025827	0.000251593	6.67652e-06	0
    Cl(f):	0.000128664	0.000125797	2.8676e-06	0
    Cl(r):	0.000129606	0.000125797	3.80892e-06	0
    CmPitch:	-4.70656e-07	-2.93437e-16	-4.70656e-07	0
    CmRoll:	-0.000129135	-0.000125797	-3.33826e-06	0
    CmYaw:	0.000815138	0.000785844	2.92936e-05	0
    Cs:	-4.4396e-23	-3.49465e-23	-9.44943e-24	0
    Cs(f):	0.000815138	0.000785844	2.92936e-05	0
    Cs(r):	-0.000815138	-0.000785844	-2.92936e-05	0

    writing force and moment coefficient files.

Time = 33

smoothSolver:  Solving for Ux, Initial residual = 0.0143258, Final residual = 8.16599e-13, No Iterations 75
smoothSolver:  Solving for Uy, Initial residual = 0.0277033, Final residual = 7.37794e-13, No Iterations 76
GAMG:  Solving for p, Initial residual = 0.0119167, Final residual = 9.92601e-13, No Iterations 39
time step continuity errors : sum local = 3.64901e-14, global = 9.26685e-16, cumulative = 5.40311e-15
smoothSolver:  Solving for omega, Initial residual = 0.00526061, Final residual = 9.85911e-13, No Iterations 54
bounding omega, min: -0.0762558 max: 63.5714 average: 0.107654
smoothSolver:  Solving for k, Initial residual = 0.0163986, Final residual = 7.67162e-13, No Iterations 66
ExecutionTime = 31.71 s  ClockTime = 31 s

forceCoeffs forceCoeffs write:
    Coefficient	Total	Pressure	Viscous	Internal
    Cd:	0.00162902	0.00157032	5.86925e-05	0
    Cd(f):	0.000687182	0.0006612	2.59814e-05	0
    Cd(r):	0.000941835	0.000909124	3.27111e-05	0
    Cl:	0.000254653	0.000247924	6.72962e-06	0
    Cl(f):	0.000126823	0.000123962	2.86136e-06	0
    Cl(r):	0.00012783	0.000123962	3.86826e-06	0
    CmPitch:	-5.03452e-07	-1.00713e-16	-5.03452e-07	0
    CmRoll:	-0.000127327	-0.000123962	-3.36481e-06	0
    CmYaw:	0.000814508	0.000785162	2.93462e-05	0
    Cs:	-4.3038e-23	-3.41855e-23	-8.85256e-24	0
    Cs(f):	0.000814508	0.000785162	2.93462e-05	0
    Cs(r):	-0.000814508	-0.000785162	-2.93462e-05	0

    writing force and moment coefficient files.

Time = 34

smoothSolver:  Solving for Ux, Initial residual = 0.0140742, Final residual = 8.10444e-13, No Iterations 75
smoothSolver:  Solving for Uy, Initial residual = 0.0269963, Final residual = 9.98721e-13, No Iterations 75
GAMG:  Solving for p, Initial residual = 0.0116097, Final residual = 9.03434e-13, No Iterations 39
time step continuity errors : sum local = 3.25323e-14, global = 8.20484e-16, cumulative = 6.22359e-15
smoothSolver:  Solving for omega, Initial residual = 0.00502965, Final residual = 7.72604e-13, No Iterations 55
bounding omega, min: -0.0771618 max: 63.5695 average: 0.108192
smoothSolver:  Solving for k, Initial residual = 0.0158361, Final residual = 7.71836e-13, No Iterations 66
ExecutionTime = 32.44 s  ClockTime = 32 s

forceCoeffs forceCoeffs write:
    Coefficient	Total	Pressure	Viscous	Internal
    Cd:	0.00163036	0.00157157	5.8797e-05	0
    Cd(f):	0.000689788	0.000663758	2.60304e-05	0
    Cd(r):	0.000940575	0.000907809	3.27666e-05	0
    Cl:	0.000250787	0.000244051	6.73621e-06	0
    Cl(f):	0.000124872	0.000122025	2.84695e-06	0
    Cl(r):	0.000125915	0.000122025	3.88926e-06	0
    CmPitch:	-5.21153e-07	1.01796e-16	-5.21153e-07	0
    CmRoll:	-0.000125394	-0.000122025	-3.3681e-06	0
    CmYaw:	0.000815182	0.000785783	2.93985e-05	0
    Cs:	-4.19337e-23	-3.349e-23	-8.44376e-24	0
    Cs(f):	0.000815182	0.000785783	2.93985e-05	0
    Cs(r):	-0.000815182	-0.000785783	-2.93985e-05	0

    writing force and moment coefficient files.

Time = 35

smoothSolver:  Solving for Ux, Initial residual = 0.013834, Final residual = 8.04249e-13, No Iterations 75
smoothSolver:  Solving for Uy, Initial residual = 0.0262668, Final residual = 9.88968e-13, No Iterations 75
GAMG:  Solving for p, Initial residual = 0.0112996, Final residual = 7.3624e-13, No Iterations 39
time step continuity errors : sum local = 2.59923e-14, global = 6.47845e-16, cumulative = 6.87144e-15
smoothSolver:  Solving for omega, Initial residual = 0.0048652, Final residual = 8.3668e-13, No Iterations 55
bounding omega, min: -0.0758282 max: 63.5681 average: 0.108716
smoothSolver:  Solving for k, Initial residual = 0.0152277, Final residual = 7.81881e-13, No Iterations 66
ExecutionTime = 33.17 s  ClockTime = 33 s

forceCoeffs forceCoeffs write:
    Coefficient	Total	Pressure	Viscous	Internal
    Cd:	0.00163316	0.00157421	5.89439e-05	0
    Cd(f):	0.00069317	0.000667048	2.61219e-05	0
    Cd(r):	0.000939987	0.000907165	3.28221e-05	0
    Cl:	0.000246817	0.000240117	6.70018e-06	0
    Cl(f):	0.000122882	0.000120058	2.82369e-06	0
    Cl(r):	0.000123935	0.000120058	3.87649e-06	0
    CmPitch:	-5.26401e-07	2.80741e-16	-5.26401e-07	0
    CmRoll:	-0.000123408	-0.000120058	-3.35009e-06	0
    CmYaw:	0.000816578	0.000787106	2.9472e-05	0
    Cs:	-4.0836e-23	-3.2866e-23	-7.97003e-24	0
    Cs(f):	0.000816578	0.000787106	2.9472e-05	0
    Cs(r):	-0.000816578	-0.000787106	-2.9472e-05	0

    writing force and moment coefficient files.

Time = 36

smoothSolver:  Solving for Ux, Initial residual = 0.0136138, Final residual = 7.98046e-13, No Iterations 75
smoothSolver:  Solving for Uy, Initial residual = 0.0255342, Final residual = 9.81512e-13, No Iterations 75
GAMG:  Solving for p, Initial residual = 0.0110159, Final residual = 7.25251e-13, No Iterations 38
time step continuity errors : sum local = 2.51258e-14, global = 5.8023e-16, cumulative = 7.45167e-15
smoothSolver:  Solving for omega, Initial residual = 0.00479585, Final residual = 9.19275e-13, No Iterations 55
bounding omega, min: -0.0760743 max: 63.567 average: 0.109249
smoothSolver:  Solving for k, Initial residual = 0.0147732, Final residual = 7.96697e-13, No Iterations 66
ExecutionTime = 33.93 s  ClockTime = 34 s

forceCoeffs forceCoeffs write:
    Coefficient	Total	Pressure	Viscous	Internal
    Cd:	0.00163602	0.00157697	5.90575e-05	0
    Cd(f):	0.000696847	0.000670633	2.62137e-05	0
    Cd(r):	0.000939177	0.000906333	3.28438e-05	0
    Cl:	0.00024233	0.0002357	6.63004e-06	0
    Cl(f):	0.000120644	0.00011785	2.79428e-06	0
    Cl(r):	0.000121686	0.00011785	3.83576e-06	0
    CmPitch:	-5.20743e-07	4.10912e-16	-5.20743e-07	0
    CmRoll:	-0.000121165	-0.00011785	-3.31502e-06	0
    CmYaw:	0.000818012	0.000788483	2.95287e-05	0
    Cs:	-3.97617e-23	-3.23284e-23	-7.43327e-24	0
    Cs(f):	0.000818012	0.000788483	2.95287e-05	0
    Cs(r):	-0.000818012	-0.000788483	-2.95287e-05	0

    writing force and moment coefficient files.

Time = 37

smoothSolver:  Solving for Ux, Initial residual = 0.0134137, Final residual = 7.92077e-13, No Iterations 75
smoothSolver:  Solving for Uy, Initial residual = 0.0247803, Final residual = 9.76554e-13, No Iterations 75
GAMG:  Solving for p, Initial residual = 0.0107629, Final residual = 8.05867e-13, No Iterations 38
time step continuity errors : sum local = 2.74074e-14, global = 6.2607e-16, cumulative = 8.07774e-15
smoothSolver:  Solving for omega, Initial residual = 0.0046174, Final residual = 9.82748e-13, No Iterations 55
bounding omega, min: -0.0773402 max: 63.5663 average: 0.109776
smoothSolver:  Solving for k, Initial residual = 0.0142163, Final residual = 8.08967e-13, No Iterations 66
ExecutionTime = 34.66 s  ClockTime = 34 s

forceCoeffs forceCoeffs write:
    Coefficient	Total	Pressure	Viscous	Internal
    Cd:	0.00163761	0.0015784	5.92161e-05	0
    Cd(f):	0.000700134	0.000673792	2.63422e-05	0
    Cd(r):	0.000937477	0.000904603	3.28739e-05	0
    Cl:	0.000237343	0.000230811	6.53169e-06	0
    Cl(f):	0.000118164	0.000115406	2.75799e-06	0
    Cl(r):	0.000119179	0.000115406	3.77369e-06	0
    CmPitch:	-5.0785e-07	4.85747e-16	-5.0785e-07	0
    CmRoll:	-0.000118672	-0.000115406	-3.26584e-06	0
    CmYaw:	0.000818806	0.000789198	2.9608e-05	0
    Cs:	-3.86776e-23	-3.18638e-23	-6.81373e-24	0
    Cs(f):	0.000818806	0.000789198	2.9608e-05	0
    Cs(r):	-0.000818806	-0.000789198	-2.9608e-05	0

    writing force and moment coefficient files.

Time = 38

smoothSolver:  Solving for Ux, Initial residual = 0.0132285, Final residual = 7.86181e-13, No Iterations 75
smoothSolver:  Solving for Uy, Initial residual = 0.0240327, Final residual = 9.73739e-13, No Iterations 75
GAMG:  Solving for p, Initial residual = 0.0105343, Final residual = 9.85452e-13, No Iterations 38
time step continuity errors : sum local = 3.29169e-14, global = 7.92303e-16, cumulative = 8.87004e-15
smoothSolver:  Solving for omega, Initial residual = 0.00452943, Final residual = 7.66506e-13, No Iterations 56
bounding omega, min: -0.0758816 max: 63.5658 average: 0.110301
smoothSolver:  Solving for k, Initial residual = 0.0138474, Final residual = 8.29953e-13, No Iterations 66
ExecutionTime = 35.39 s  ClockTime = 35 s

forceCoeffs forceCoeffs write:
    Coefficient	Total	Pressure	Viscous	Internal
    Cd:	0.00163672	0.00157739	5.93305e-05	0
    Cd(f):	0.000702613	0.000676154	2.64595e-05	0
    Cd(r):	0.000934111	0.00090124	3.28709e-05	0
    Cl:	0.000231498	0.000225087	6.41138e-06	0
    Cl(f):	0.000115254	0.000112543	2.71042e-06	0
    Cl(r):	0.000116244	0.000112543	3.70097e-06	0
    CmPitch:	-4.95276e-07	5.1427e-16	-4.95276e-07	0
    CmRoll:	-0.000115749	-0.000112543	-3.20569e-06	0
    CmYaw:	0.000818362	0.000788697	2.96652e-05	0
    Cs:	-3.76478e-23	-3.14633e-23	-6.18446e-24	0
    Cs(f):	0.000818362	0.000788697	2.96652e-05	0
    Cs(r):	-0.000818362	-0.000788697	-2.96652e-05	0

    writing force and moment coefficient files.

Time = 39

smoothSolver:  Solving for Ux, Initial residual = 0.0130608, Final residual = 7.8032e-13, No Iterations 75
smoothSolver:  Solving for Uy, Initial residual = 0.0232696, Final residual = 9.72818e-13, No Iterations 75
GAMG:  Solving for p, Initial residual = 0.010283, Final residual = 6.09667e-13, No Iterations 39
time step continuity errors : sum local = 2.00251e-14, global = 5.37717e-16, cumulative = 9.40776e-15
smoothSolver:  Solving for omega, Initial residual = 0.0044254, Final residual = 8.30892e-13, No Iterations 56
bounding omega, min: -0.0761895 max: 63.5655 average: 0.110791
smoothSolver:  Solving for k, Initial residual = 0.0133411, Final residual = 8.56014e-13, No Iterations 66
ExecutionTime = 36.13 s  ClockTime = 36 s

forceCoeffs forceCoeffs write:
    Coefficient	Total	Pressure	Viscous	Internal
    Cd:	0.00163281	0.00157336	5.94431e-05	0
    Cd(f):	0.000703933	0.000677352	2.65811e-05	0
    Cd(r):	0.000928874	0.000896012	3.2862e-05	0
    Cl:	0.000224941	0.00021866	6.28092e-06	0
    Cl(f):	0.000111986	0.00010933	2.65594e-06	0
    Cl(r):	0.000112955	0.00010933	3.62498e-06	0
    CmPitch:	-4.84523e-07	5.15232e-16	-4.84523e-07	0
    CmRoll:	-0.00011247	-0.00010933	-3.14046e-06	0
    CmYaw:	0.000816403	0.000786682	2.97216e-05	0
    Cs:	-3.67054e-23	-3.11048e-23	-5.60054e-24	0
    Cs(f):	0.000816403	0.000786682	2.97216e-05	0
    Cs(r):	-0.000816403	-0.000786682	-2.97216e-05	0

    writing force and moment coefficient files.

Time = 40

smoothSolver:  Solving for Ux, Initial residual = 0.0129029, Final residual = 7.74394e-13, No Iterations 75
smoothSolver:  Solving for Uy, Initial residual = 0.0225258, Final residual = 9.73601e-13, No Iterations 75
GAMG:  Solving for p, Initial residual = 0.0100207, Final residual = 5.9904e-13, No Iterations 39
time step continuity errors : sum local = 1.9352e-14, global = 5.25144e-16, cumulative = 9.9329e-15
smoothSolver:  Solving for omega, Initial residual = 0.0043913, Final residual = 8.96837e-13, No Iterations 56
bounding omega, min: -0.0758726 max: 63.5654 average: 0.111299
smoothSolver:  Solving for k, Initial residual = 0.0129654, Final residual = 8.80111e-13, No Iterations 66
ExecutionTime = 36.86 s  ClockTime = 37 s

forceCoeffs forceCoeffs write:
    Coefficient	Total	Pressure	Viscous	Internal
    Cd:	0.00162588	0.00156642	5.94561e-05	0
    Cd(f):	0.000704184	0.000677528	2.66566e-05	0
    Cd(r):	0.000921692	0.000888892	3.27995e-05	0
    Cl:	0.000217507	0.000211365	6.14287e-06	0
    Cl(f):	0.000108278	0.000105682	2.59537e-06	0
    Cl(r):	0.00010923	0.000105682	3.54751e-06	0
    CmPitch:	-4.7607e-07	5.04473e-16	-4.7607e-07	0
    CmRoll:	-0.000108754	-0.000105682	-3.07144e-06	0
    CmYaw:	0.000812938	0.00078321	2.9728e-05	0
    Cs:	-3.58979e-23	-3.07811e-23	-5.11687e-24	0
    Cs(f):	0.000812938	0.00078321	2.9728e-05	0
    Cs(r):	-0.000812938	-0.00078321	-2.9728e-05	0

    writing force and moment coefficient files.

Time = 41

smoothSolver:  Solving for Ux, Initial residual = 0.0127531, Final residual = 7.68268e-13, No Iterations 75
smoothSolver:  Solving for Uy, Initial residual = 0.0218005, Final residual = 9.75213e-13, No Iterations 75
GAMG:  Solving for p, Initial residual = 0.00974788, Final residual = 9.71627e-13, No Iterations 38
time step continuity errors : sum local = 3.08732e-14, global = 7.84868e-16, cumulative = 1.07178e-14
smoothSolver:  Solving for omega, Initial residual = 0.00424498, Final residual = 9.77199e-13, No Iterations 56
bounding omega, min: -0.0772082 max: 63.5653 average: 0.1118
smoothSolver:  Solving for k, Initial residual = 0.0125291, Final residual = 9.15264e-13, No Iterations 66
ExecutionTime = 37.62 s  ClockTime = 37 s

forceCoeffs forceCoeffs write:
    Coefficient	Total	Pressure	Viscous	Internal
    Cd:	0.00161679	0.00155738	5.94151e-05	0
    Cd(f):	0.000703603	0.00067689	2.67128e-05	0
    Cd(r):	0.00091319	0.000880487	3.27024e-05	0
    Cl:	0.000209587	0.000203597	5.98962e-06	0
    Cl(f):	0.000104331	0.000101799	2.53227e-06	0
    Cl(r):	0.000105256	0.000101799	3.45735e-06	0
    CmPitch:	-4.62543e-07	4.93684e-16	-4.62543e-07	0
    CmRoll:	-0.000104793	-0.000101799	-2.99481e-06	0
    CmYaw:	0.000808396	0.000778689	2.97076e-05	0
    Cs:	-3.51158e-23	-3.04792e-23	-4.63665e-24	0
    Cs(f):	0.000808396	0.000778689	2.97076e-05	0
    Cs(r):	-0.000808396	-0.000778689	-2.97076e-05	0

    writing force and moment coefficient files.

Time = 42

smoothSolver:  Solving for Ux, Initial residual = 0.0126114, Final residual = 7.61801e-13, No Iterations 75
smoothSolver:  Solving for Uy, Initial residual = 0.0211269, Final residual = 9.7656e-13, No Iterations 75
GAMG:  Solving for p, Initial residual = 0.00946631, Final residual = 9.08503e-13, No Iterations 38
time step continuity errors : sum local = 2.84158e-14, global = 7.34602e-16, cumulative = 1.14524e-14
smoothSolver:  Solving for omega, Initial residual = 0.00414625, Final residual = 7.54886e-13, No Iterations 57
bounding omega, min: -0.0756331 max: 63.5653 average: 0.112332
smoothSolver:  Solving for k, Initial residual = 0.0121834, Final residual = 9.46828e-13, No Iterations 66
ExecutionTime = 38.37 s  ClockTime = 38 s

forceCoeffs forceCoeffs write:
    Coefficient	Total	Pressure	Viscous	Internal
    Cd:	0.00160675	0.00154749	5.92605e-05	0
    Cd(f):	0.000702803	0.00067608	2.67223e-05	0
    Cd(r):	0.000903948	0.00087141	3.25383e-05	0
    Cl:	0.000201145	0.000195329	5.816e-06	0
    Cl(f):	0.000100133	9.76646e-05	2.46864e-06	0
    Cl(r):	0.000101012	9.76646e-05	3.34736e-06	0
    CmPitch:	-4.39361e-07	4.74739e-16	-4.39361e-07	0
    CmRoll:	-0.000100573	-9.76646e-05	-2.908e-06	0
    CmYaw:	0.000803375	0.000773745	2.96303e-05	0
    Cs:	-3.43867e-23	-3.02075e-23	-4.17918e-24	0
    Cs(f):	0.000803375	0.000773745	2.96303e-05	0
    Cs(r):	-0.000803375	-0.000773745	-2.96303e-05	0

    writing force and moment coefficient files.

Time = 43

smoothSolver:  Solving for Ux, Initial residual = 0.0124791, Final residual = 7.55023e-13, No Iterations 75
smoothSolver:  Solving for Uy, Initial residual = 0.0204989, Final residual = 9.77738e-13, No Iterations 75
GAMG:  Solving for p, Initial residual = 0.00919192, Final residual = 7.99796e-13, No Iterations 38
time step continuity errors : sum local = 2.4638e-14, global = 6.45336e-16, cumulative = 1.20977e-14
smoothSolver:  Solving for omega, Initial residual = 0.00411451, Final residual = 8.21085e-13, No Iterations 57
bounding omega, min: -0.0762682 max: 63.5653 average: 0.112848
smoothSolver:  Solving for k, Initial residual = 0.0117771, Final residual = 9.83945e-13, No Iterations 66
ExecutionTime = 39.11 s  ClockTime = 39 s

forceCoeffs forceCoeffs write:
    Coefficient	Total	Pressure	Viscous	Internal
    Cd:	0.00159736	0.00153826	5.91011e-05	0
    Cd(f):	0.000702474	0.000675734	2.67401e-05	0
    Cd(r):	0.000894885	0.000862524	3.23611e-05	0
    Cl:	0.00019241	0.000186789	5.62104e-06	0
    Cl(f):	9.57959e-05	9.33947e-05	2.40117e-06	0
    Cl(r):	9.66146e-05	9.33947e-05	3.21987e-06	0
    CmPitch:	-4.09346e-07	4.46598e-16	-4.09346e-07	0
    CmRoll:	-9.62052e-05	-9.33947e-05	-2.81052e-06	0
    CmYaw:	0.00079868	0.000769129	2.95506e-05	0
    Cs:	-3.36664e-23	-2.99655e-23	-3.70093e-24	0
    Cs(f):	0.00079868	0.000769129	2.95506e-05	0
    Cs(r):	-0.00079868	-0.000769129	-2.95506e-05	0

    writing force and moment coefficient files.

Time = 44

smoothSolver:  Solving for Ux, Initial residual = 0.0123529, Final residual = 7.48077e-13, No Iterations 75
smoothSolver:  Solving for Uy, Initial residual = 0.0199222, Final residual = 9.78607e-13, No Iterations 75
GAMG:  Solving for p, Initial residual = 0.00893239, Final residual = 6.63525e-13, No Iterations 38
time step continuity errors : sum local = 2.01398e-14, global = 5.32519e-16, cumulative = 1.26302e-14
smoothSolver:  Solving for omega, Initial residual = 0.00396827, Final residual = 8.74879e-13, No Iterations 57
bounding omega, min: -0.077171 max: 63.5653 average: 0.113382
smoothSolver:  Solving for k, Initial residual = 0.0114314, Final residual = 7.35936e-13, No Iterations 67
ExecutionTime = 39.91 s  ClockTime = 40 s

forceCoeffs forceCoeffs write:
    Coefficient	Total	Pressure	Viscous	Internal
    Cd:	0.00158969	0.00153077	5.89173e-05	0
    Cd(f):	0.000703238	0.00067648	2.6758e-05	0
    Cd(r):	0.000886448	0.000854289	3.21593e-05	0
    Cl:	0.00018321	0.000177808	5.40133e-06	0
    Cl(f):	9.1226e-05	8.89042e-05	2.32177e-06	0
    Cl(r):	9.19837e-05	8.89042e-05	3.07956e-06	0
    CmPitch:	-3.78891e-07	4.04937e-16	-3.78891e-07	0
    CmRoll:	-9.16049e-05	-8.89042e-05	-2.70067e-06	0
    CmYaw:	0.000794843	0.000765385	2.94587e-05	0
    Cs:	-3.30002e-23	-2.97616e-23	-3.2386e-24	0
    Cs(f):	0.000794843	0.000765385	2.94587e-05	0
    Cs(r):	-0.000794843	-0.000765385	-2.94587e-05	0

    writing force and moment coefficient files.

Time = 45

smoothSolver:  Solving for Ux, Initial residual = 0.0122323, Final residual = 7.40917e-13, No Iterations 75
smoothSolver:  Solving for Uy, Initial residual = 0.0193996, Final residual = 9.78611e-13, No Iterations 75
GAMG:  Solving for p, Initial residual = 0.00871468, Final residual = 8.2213e-13, No Iterations 37
time step continuity errors : sum local = 2.46046e-14, global = 8.25221e-16, cumulative = 1.34554e-14
smoothSolver:  Solving for omega, Initial residual = 0.00389143, Final residual = 9.28991e-13, No Iterations 57
bounding omega, min: -0.075837 max: 63.5654 average: 0.113888
smoothSolver:  Solving for k, Initial residual = 0.0110765, Final residual = 7.67646e-13, No Iterations 67
ExecutionTime = 40.65 s  ClockTime = 40 s

forceCoeffs forceCoeffs write:
    Coefficient	Total	Pressure	Viscous	Internal
    Cd:	0.00158437	0.00152556	5.8811e-05	0
    Cd(f):	0.000705407	0.000678584	2.68235e-05	0
    Cd(r):	0.000878967	0.000846979	3.19875e-05	0
    Cl:	0.00017356	0.000168396	5.164e-06	0
    Cl(f):	8.64278e-05	8.41978e-05	2.23004e-06	0
    Cl(r):	8.71317e-05	8.41978e-05	2.93396e-06	0
    CmPitch:	-3.51957e-07	3.62071e-16	-3.51957e-07	0
    CmRoll:	-8.67798e-05	-8.41978e-05	-2.582e-06	0
    CmYaw:	0.000792187	0.000762782	2.94055e-05	0
    Cs:	-3.23309e-23	-2.95877e-23	-2.74321e-24	0
    Cs(f):	0.000792187	0.000762782	2.94055e-05	0
    Cs(r):	-0.000792187	-0.000762782	-2.94055e-05	0

    writing force and moment coefficient files.

Time = 46

smoothSolver:  Solving for Ux, Initial residual = 0.0121112, Final residual = 9.97526e-13, No Iterations 74
smoothSolver:  Solving for Uy, Initial residual = 0.0189317, Final residual = 9.77535e-13, No Iterations 75
GAMG:  Solving for p, Initial residual = 0.00853923, Final residual = 6.07916e-13, No Iterations 37
time step continuity errors : sum local = 1.79428e-14, global = 6.64013e-16, cumulative = 1.41195e-14
smoothSolver:  Solving for omega, Initial residual = 0.00384786, Final residual = 9.82046e-13, No Iterations 57
bounding omega, min: -0.0760814 max: 63.5655 average: 0.114427
smoothSolver:  Solving for k, Initial residual = 0.0107853, Final residual = 7.97682e-13, No Iterations 67
ExecutionTime = 41.4 s  ClockTime = 41 s

forceCoeffs forceCoeffs write:
    Coefficient	Total	Pressure	Viscous	Internal
    Cd:	0.00158119	0.00152246	5.87235e-05	0
    Cd(f):	0.000708923	0.000682019	2.69041e-05	0
    Cd(r):	0.000872263	0.000840444	3.18194e-05	0
    Cl:	0.00016334	0.000158425	4.9153e-06	0
    Cl(f):	8.13383e-05	7.92123e-05	2.12596e-06	0
    Cl(r):	8.20016e-05	7.92123e-05	2.78934e-06	0
    CmPitch:	-3.31691e-07	3.22991e-16	-3.31691e-07	0
    CmRoll:	-8.16699e-05	-7.92123e-05	-2.45765e-06	0
    CmYaw:	0.000790593	0.000761231	2.93618e-05	0
    Cs:	-3.17005e-23	-2.94362e-23	-2.26423e-24	0
    Cs(f):	0.000790593	0.000761231	2.93618e-05	0
    Cs(r):	-0.000790593	-0.000761231	-2.93618e-05	0

    writing force and moment coefficient files.

Time = 47

smoothSolver:  Solving for Ux, Initial residual = 0.0119969, Final residual = 9.87455e-13, No Iterations 74
smoothSolver:  Solving for Uy, Initial residual = 0.0184935, Final residual = 9.7521e-13, No Iterations 75
GAMG:  Solving for p, Initial residual = 0.00838626, Final residual = 9.74221e-13, No Iterations 36
time step continuity errors : sum local = 2.83461e-14, global = 5.3805e-16, cumulative = 1.46575e-14
smoothSolver:  Solving for omega, Initial residual = 0.00373072, Final residual = 7.32586e-13, No Iterations 58
bounding omega, min: -0.0773464 max: 63.5656 average: 0.114923
smoothSolver:  Solving for k, Initial residual = 0.010431, Final residual = 8.25704e-13, No Iterations 67
ExecutionTime = 42.25 s  ClockTime = 42 s

forceCoeffs forceCoeffs write:
    Coefficient	Total	Pressure	Viscous	Internal
    Cd:	0.00157952	0.00152081	5.87132e-05	0
    Cd(f):	0.000713464	0.000686441	2.70234e-05	0
    Cd(r):	0.000866055	0.000834366	3.16897e-05	0
    Cl:	0.000152591	0.000147925	4.66627e-06	0
    Cl(f):	7.59765e-05	7.39623e-05	2.01418e-06	0
    Cl(r):	7.66144e-05	7.39623e-05	2.65209e-06	0
    CmPitch:	-3.18952e-07	3.04266e-16	-3.18952e-07	0
    CmRoll:	-7.62954e-05	-7.39623e-05	-2.33313e-06	0
    CmYaw:	0.00078976	0.000760403	2.93566e-05	0
    Cs:	-3.10487e-23	-2.92939e-23	-1.75485e-24	0
    Cs(f):	0.00078976	0.000760403	2.93566e-05	0
    Cs(r):	-0.00078976	-0.000760403	-2.93566e-05	0

    writing force and moment coefficient files.

Time = 48

smoothSolver:  Solving for Ux, Initial residual = 0.0118838, Final residual = 9.77487e-13, No Iterations 74
smoothSolver:  Solving for Uy, Initial residual = 0.0180981, Final residual = 9.72036e-13, No Iterations 75
GAMG:  Solving for p, Initial residual = 0.00825052, Final residual = 6.16738e-13, No Iterations 37
time step continuity errors : sum local = 1.77124e-14, global = 6.86644e-16, cumulative = 1.53442e-14
smoothSolver:  Solving for omega, Initial residual = 0.00363053, Final residual = 7.64463e-13, No Iterations 58
bounding omega, min: -0.0758876 max: 63.5658 average: 0.115437
smoothSolver:  Solving for k, Initial residual = 0.0101222, Final residual = 8.5603e-13, No Iterations 67
ExecutionTime = 43.01 s  ClockTime = 43 s

forceCoeffs forceCoeffs write:
    Coefficient	Total	Pressure	Viscous	Internal
    Cd:	0.00157838	0.00151969	5.8695e-05	0
    Cd(f):	0.000718543	0.000691404	2.71394e-05	0
    Cd(r):	0.000859841	0.000828285	3.15556e-05	0
    Cl:	0.000141298	0.000136882	4.41626e-06	0
    Cl(f):	7.03379e-05	6.84408e-05	1.8971e-06	0
    Cl(r):	7.09599e-05	6.84408e-05	2.51916e-06	0
    CmPitch:	-3.11029e-07	3.1281e-16	-3.11029e-07	0
    CmRoll:	-7.06489e-05	-6.84408e-05	-2.20813e-06	0
    CmYaw:	0.000789192	0.000759844	2.93475e-05	0
    Cs:	-3.04658e-23	-2.91567e-23	-1.30907e-24	0
    Cs(f):	0.000789192	0.000759844	2.93475e-05	0
    Cs(r):	-0.000789192	-0.000759844	-2.93475e-05	0

    writing force and moment coefficient files.

Time = 49

smoothSolver:  Solving for Ux, Initial residual = 0.0117741, Final residual = 9.6746e-13, No Iterations 74
smoothSolver:  Solving for Uy, Initial residual = 0.0177227, Final residual = 9.6781e-13, No Iterations 75
GAMG:  Solving for p, Initial residual = 0.00814528, Final residual = 7.40217e-13, No Iterations 37
time step continuity errors : sum local = 2.09714e-14, global = 8.05844e-16, cumulative = 1.615e-14
smoothSolver:  Solving for omega, Initial residual = 0.00358198, Final residual = 7.76648e-13, No Iterations 58
bounding omega, min: -0.0761946 max: 63.566 average: 0.115906
smoothSolver:  Solving for k, Initial residual = 0.00979574, Final residual = 8.76675e-13, No Iterations 67
ExecutionTime = 43.84 s  ClockTime = 44 s

forceCoeffs forceCoeffs write:
    Coefficient	Total	Pressure	Viscous	Internal
    Cd:	0.00157697	0.00151826	5.87099e-05	0
    Cd(f):	0.000723677	0.000696406	2.72707e-05	0
    Cd(r):	0.000853296	0.000821857	3.14392e-05	0
    Cl:	0.000129619	0.000125451	4.16859e-06	0
    Cl(f):	6.45035e-05	6.27254e-05	1.77819e-06	0
    Cl(r):	6.51158e-05	6.27254e-05	2.3904e-06	0
    CmPitch:	-3.06105e-07	3.58874e-16	-3.06105e-07	0
    CmRoll:	-6.48097e-05	-6.27254e-05	-2.0843e-06	0
    CmYaw:	0.000788487	0.000759132	2.9355e-05	0
    Cs:	-2.99157e-23	-2.90205e-23	-8.95207e-25	0
    Cs(f):	0.000788487	0.000759132	2.9355e-05	0
    Cs(r):	-0.000788487	-0.000759132	-2.9355e-05	0

    writing force and moment coefficient files.

Time = 50

smoothSolver:  Solving for Ux, Initial residual = 0.0116744, Final residual = 9.5738e-13, No Iterations 74
smoothSolver:  Solving for Uy, Initial residual = 0.0173719, Final residual = 9.62888e-13, No Iterations 75
GAMG:  Solving for p, Initial residual = 0.0080519, Final residual = 8.39849e-13, No Iterations 37
time step continuity errors : sum local = 2.34827e-14, global = 9.14099e-16, cumulative = 1.70641e-14
smoothSolver:  Solving for omega, Initial residual = 0.00353366, Final residual = 7.93678e-13, No Iterations 58
bounding omega, min: -0.0758772 max: 63.5662 average: 0.116386
smoothSolver:  Solving for k, Initial residual = 0.00953412, Final residual = 8.95344e-13, No Iterations 67
ExecutionTime = 44.63 s  ClockTime = 44 s

forceCoeffs forceCoeffs write:
    Coefficient	Total	Pressure	Viscous	Internal
    Cd:	0.00157464	0.00151597	5.86651e-05	0
    Cd(f):	0.000728497	0.000701124	2.73734e-05	0
    Cd(r):	0.000846142	0.000814851	3.12917e-05	0
    Cl:	0.000117645	0.000113727	3.91824e-06	0
    Cl(f):	5.85236e-05	5.68633e-05	1.66026e-06	0
    Cl(r):	5.91213e-05	5.68633e-05	2.25798e-06	0
    CmPitch:	-2.98864e-07	4.34266e-16	-2.98864e-07	0
    CmRoll:	-5.88224e-05	-5.68633e-05	-1.95912e-06	0
    CmYaw:	0.00078732	0.000757987	2.93326e-05	0
    Cs:	-2.94319e-23	-2.88904e-23	-5.41532e-25	0
    Cs(f):	0.00078732	0.000757987	2.93326e-05	0
    Cs(r):	-0.00078732	-0.000757987	-2.93326e-05	0

    writing force and moment coefficient files.

Time = 51

smoothSolver:  Solving for Ux, Initial residual = 0.0115725, Final residual = 9.47332e-13, No Iterations 74
smoothSolver:  Solving for Uy, Initial residual = 0.0170255, Final residual = 9.57465e-13, No Iterations 75
GAMG:  Solving for p, Initial residual = 0.00796715, Final residual = 8.92038e-13, No Iterations 37
time step continuity errors : sum local = 2.4622e-14, global = 9.90181e-16, cumulative = 1.80543e-14
smoothSolver:  Solving for omega, Initial residual = 0.00345017, Final residual = 7.94873e-13, No Iterations 58
bounding omega, min: -0.0772113 max: 63.5665 average: 0.11682
smoothSolver:  Solving for k, Initial residual = 0.00922933, Final residual = 9.06299e-13, No Iterations 67
ExecutionTime = 45.36 s  ClockTime = 45 s

forceCoeffs forceCoeffs write:
    Coefficient	Total	Pressure	Viscous	Internal
    Cd:	0.00157124	0.00151262	5.8611e-05	0
    Cd(f):	0.000732805	0.00070533	2.74749e-05	0
    Cd(r):	0.000838431	0.000807295	3.11361e-05	0
    Cl:	0.000105626	0.000101965	3.66123e-06	0
    Cl(f):	5.25273e-05	5.09825e-05	1.5448e-06	0
    Cl(r):	5.30989e-05	5.09825e-05	2.11643e-06	0
    CmPitch:	-2.85817e-07	5.28955e-16	-2.85817e-07	0
    CmRoll:	-5.28131e-05	-5.09825e-05	-1.83062e-06	0
    CmYaw:	0.000785618	0.000756312	2.93055e-05	0
    Cs:	-2.89654e-23	-2.87679e-23	-1.97468e-25	0
    Cs(f):	0.000785618	0.000756312	2.93055e-05	0
    Cs(r):	-0.000785618	-0.000756312	-2.93055e-05	0

    writing force and moment coefficient files.

Time = 52

smoothSolver:  Solving for Ux, Initial residual = 0.0114741, Final residual = 9.37471e-13, No Iterations 74
smoothSolver:  Solving for Uy, Initial residual = 0.0167057, Final residual = 9.51871e-13, No Iterations 75
GAMG:  Solving for p, Initial residual = 0.00789115, Final residual = 9.24975e-13, No Iterations 37
time step continuity errors : sum local = 2.52028e-14, global = 1.04713e-15, cumulative = 1.91014e-14
smoothSolver:  Solving for omega, Initial residual = 0.00336242, Final residual = 7.91262e-13, No Iterations 58
bounding omega, min: -0.0756364 max: 63.5668 average: 0.117258
smoothSolver:  Solving for k, Initial residual = 0.00897291, Final residual = 9.2547e-13, No Iterations 67
ExecutionTime = 46.15 s  ClockTime = 46 s

forceCoeffs forceCoeffs write:
    Coefficient	Total	Pressure	Viscous	Internal
    Cd:	0.00156691	0.00150843	5.84772e-05	0
    Cd(f):	0.000736634	0.000709091	2.75432e-05	0
    Cd(r):	0.000830272	0.000799338	3.09339e-05	0
    Cl:	9.36373e-05	9.02466e-05	3.3907e-06	0
    Cl(f):	4.65531e-05	4.51233e-05	1.42977e-06	0
    Cl(r):	4.70842e-05	4.51233e-05	1.96093e-06	0
    CmPitch:	-2.65578e-07	6.20317e-16	-2.65578e-07	0
    CmRoll:	-4.68186e-05	-4.51233e-05	-1.69535e-06	0
    CmYaw:	0.000783453	0.000754214	2.92386e-05	0
    Cs:	-2.85403e-23	-2.86631e-23	1.22757e-25	0
    Cs(f):	0.000783453	0.000754214	2.92386e-05	0
    Cs(r):	-0.000783453	-0.000754214	-2.92386e-05	0

    writing force and moment coefficient files.

Time = 53

smoothSolver:  Solving for Ux, Initial residual = 0.0113757, Final residual = 9.27743e-13, No Iterations 74
smoothSolver:  Solving for Uy, Initial residual = 0.0163907, Final residual = 9.45467e-13, No Iterations 75
GAMG:  Solving for p, Initial residual = 0.00781252, Final residual = 9.09634e-13, No Iterations 37
time step continuity errors : sum local = 2.44763e-14, global = 1.05137e-15, cumulative = 2.01528e-14
smoothSolver:  Solving for omega, Initial residual = 0.00337729, Final residual = 7.84901e-13, No Iterations 58
bounding omega, min: -0.0762718 max: 63.567 average: 0.117654
smoothSolver:  Solving for k, Initial residual = 0.00869839, Final residual = 9.29818e-13, No Iterations 67
ExecutionTime = 46.91 s  ClockTime = 47 s

forceCoeffs forceCoeffs write:
    Coefficient	Total	Pressure	Viscous	Internal
    Cd:	0.00156222	0.00150388	5.8339e-05	0
[...]
ExecutionTime = 1473.76 s  ClockTime = 1474 s

forceCoeffs forceCoeffs write:
    Coefficient	Total	Pressure	Viscous	Internal
    Cd:	0.00228439	0.00220358	8.0815e-05	0
    Cd(f):	0.000872096	0.000847821	2.42744e-05	0
    Cd(r):	0.0014123	0.00135576	5.65407e-05	0
    Cl:	0.000540201	0.000507935	3.22663e-05	0
    Cl(f):	0.000268464	0.000253967	1.44963e-05	0
    Cl(r):	0.000271737	0.000253967	1.777e-05	0
    CmPitch:	-1.63683e-06	1.95501e-15	-1.63683e-06	0
    CmRoll:	-0.0002701	-0.000253967	-1.61332e-05	0
    CmYaw:	0.0011422	0.00110179	4.04075e-05	0
    Cs:	3.14312e-24	-1.44129e-23	1.7556e-23	0
    Cs(f):	0.0011422	0.00110179	4.04075e-05	0
    Cs(r):	-0.0011422	-0.00110179	-4.04075e-05	0

    writing force and moment coefficient files.

Time = 1988

smoothSolver:  Solving for Ux, Initial residual = 0.0253378, Final residual = 7.43544e-13, No Iterations 76
smoothSolver:  Solving for Uy, Initial residual = 0.0394896, Final residual = 8.47591e-13, No Iterations 78
GAMG:  Solving for p, Initial residual = 0.0173396, Final residual = 7.07432e-13, No Iterations 42
time step continuity errors : sum local = 1.24339e-14, global = -6.43385e-16, cumulative = 3.96633e-13
smoothSolver:  Solving for omega, Initial residual = 0.00532087, Final residual = 9.74098e-13, No Iterations 47
bounding omega, min: -0.0758558 max: 63.6893 average: 0.147981
smoothSolver:  Solving for k, Initial residual = 0.0106985, Final residual = 9.73587e-13, No Iterations 56
bounding k, min: -1.52468e-07 max: 0.000255835 average: 2.01511e-05
ExecutionTime = 1474.47 s  ClockTime = 1475 s

forceCoeffs forceCoeffs write:
    Coefficient	Total	Pressure	Viscous	Internal
    Cd:	0.00225393	0.00217333	8.05994e-05	0
    Cd(f):	0.000997662	0.000971053	2.66097e-05	0
    Cd(r):	0.00125627	0.00120228	5.39896e-05	0
    Cl:	0.000258604	0.000231224	2.73799e-05	0
    Cl(f):	0.0001278	0.000115612	1.21876e-05	0
    Cl(r):	0.000130805	0.000115612	1.51923e-05	0
    CmPitch:	-1.50235e-06	1.71092e-15	-1.50235e-06	0
    CmRoll:	-0.000129302	-0.000115612	-1.369e-05	0
    CmYaw:	0.00112696	0.00108666	4.02997e-05	0
    Cs:	-4.04488e-24	-2.27497e-23	1.87048e-23	0
    Cs(f):	0.00112696	0.00108666	4.02997e-05	0
    Cs(r):	-0.00112696	-0.00108666	-4.02997e-05	0

    writing force and moment coefficient files.

Time = 1989

smoothSolver:  Solving for Ux, Initial residual = 0.0256222, Final residual = 7.43221e-13, No Iterations 76
smoothSolver:  Solving for Uy, Initial residual = 0.0396538, Final residual = 8.45707e-13, No Iterations 78
GAMG:  Solving for p, Initial residual = 0.0175264, Final residual = 7.09262e-13, No Iterations 43
time step continuity errors : sum local = 1.23908e-14, global = -5.537e-16, cumulative = 3.9608e-13
smoothSolver:  Solving for omega, Initial residual = 0.00541047, Final residual = 8.87001e-13, No Iterations 47
bounding omega, min: -0.0761783 max: 63.6455 average: 0.147641
smoothSolver:  Solving for k, Initial residual = 0.0107923, Final residual = 9.76426e-13, No Iterations 56
ExecutionTime = 1475.17 s  ClockTime = 1475 s

forceCoeffs forceCoeffs write:
    Coefficient	Total	Pressure	Viscous	Internal
    Cd:	0.00223708	0.00215639	8.06842e-05	0
    Cd(f):	0.00113416	0.00110491	2.92471e-05	0
    Cd(r):	0.00110292	0.00105148	5.14371e-05	0
    Cl:	-3.1246e-05	-5.3436e-05	2.219e-05	0
    Cl(f):	-1.6994e-05	-2.6718e-05	9.72403e-06	0
    Cl(r):	-1.4252e-05	-2.6718e-05	1.2466e-05	0
    CmPitch:	-1.37097e-06	4.26407e-16	-1.37097e-06	0
    CmRoll:	1.5623e-05	2.6718e-05	-1.1095e-05	0
    CmYaw:	0.00111854	0.0010782	4.03421e-05	0
    Cs:	-1.12944e-23	-3.08465e-23	1.95521e-23	0
    Cs(f):	0.00111854	0.0010782	4.03421e-05	0
    Cs(r):	-0.00111854	-0.0010782	-4.03421e-05	0

    writing force and moment coefficient files.

Time = 1990

smoothSolver:  Solving for Ux, Initial residual = 0.0259008, Final residual = 7.45137e-13, No Iterations 76
smoothSolver:  Solving for Uy, Initial residual = 0.0397711, Final residual = 8.46022e-13, No Iterations 78
GAMG:  Solving for p, Initial residual = 0.0176525, Final residual = 9.06905e-13, No Iterations 43
time step continuity errors : sum local = 1.57375e-14, global = -7.19796e-16, cumulative = 3.9536e-13
smoothSolver:  Solving for omega, Initial residual = 0.00547888, Final residual = 9.00591e-13, No Iterations 47
bounding omega, min: -0.0758576 max: 63.6173 average: 0.147339
smoothSolver:  Solving for k, Initial residual = 0.0109065, Final residual = 9.33385e-13, No Iterations 56
ExecutionTime = 1475.89 s  ClockTime = 1476 s

forceCoeffs forceCoeffs write:
    Coefficient	Total	Pressure	Viscous	Internal
    Cd:	0.0022333	0.0021523	8.09972e-05	0
    Cd(f):	0.00127948	0.00124736	3.21123e-05	0
    Cd(r):	0.000953821	0.000904936	4.88849e-05	0
    Cl:	-0.000325654	-0.000342427	1.67725e-05	0
    Cl(f):	-0.000164076	-0.000171213	7.13774e-06	0
    Cl(r):	-0.000161579	-0.000171213	9.63479e-06	0
    CmPitch:	-1.24853e-06	-1.40851e-15	-1.24853e-06	0
    CmRoll:	0.000162827	0.000171213	-8.38627e-06	0
    CmYaw:	0.00111665	0.00107615	4.04986e-05	0
    Cs:	-1.67034e-23	-3.85819e-23	2.18785e-23	0
    Cs(f):	0.00111665	0.00107615	4.04986e-05	0
    Cs(r):	-0.00111665	-0.00107615	-4.04986e-05	0

    writing force and moment coefficient files.

Time = 1991

smoothSolver:  Solving for Ux, Initial residual = 0.026168, Final residual = 7.48421e-13, No Iterations 76
smoothSolver:  Solving for Uy, Initial residual = 0.0398179, Final residual = 8.46759e-13, No Iterations 78
GAMG:  Solving for p, Initial residual = 0.0178238, Final residual = 7.7222e-13, No Iterations 43
time step continuity errors : sum local = 1.33157e-14, global = -6.03857e-16, cumulative = 3.94756e-13
smoothSolver:  Solving for omega, Initial residual = 0.00555809, Final residual = 8.84372e-13, No Iterations 47
bounding omega, min: -0.0772006 max: 63.6089 average: 0.147061
smoothSolver:  Solving for k, Initial residual = 0.0110141, Final residual = 8.78876e-13, No Iterations 56
ExecutionTime = 1476.59 s  ClockTime = 1477 s

forceCoeffs forceCoeffs write:
    Coefficient	Total	Pressure	Viscous	Internal
    Cd:	0.00224328	0.00216175	8.15293e-05	0
    Cd(f):	0.00143154	0.00139627	3.5264e-05	0
    Cd(r):	0.000811741	0.000765476	4.62653e-05	0
    Cl:	-0.000619797	-0.000630798	1.10013e-05	0
    Cl(f):	-0.00031093	-0.000315399	4.4696e-06	0
    Cl(r):	-0.000308867	-0.000315399	6.53171e-06	0
    CmPitch:	-1.03106e-06	-3.30224e-15	-1.03106e-06	0
    CmRoll:	0.000309898	0.000315399	-5.50066e-06	0
    CmYaw:	0.00112164	0.00108087	4.07646e-05	0
    Cs:	-2.23829e-23	-4.58508e-23	2.3468e-23	0
    Cs(f):	0.00112164	0.00108087	4.07646e-05	0
    Cs(r):	-0.00112164	-0.00108087	-4.07646e-05	0

    writing force and moment coefficient files.

Time = 1992

smoothSolver:  Solving for Ux, Initial residual = 0.0264069, Final residual = 7.51569e-13, No Iterations 76
smoothSolver:  Solving for Uy, Initial residual = 0.0397864, Final residual = 8.46013e-13, No Iterations 78
GAMG:  Solving for p, Initial residual = 0.0179918, Final residual = 7.24635e-13, No Iterations 43
time step continuity errors : sum local = 1.24233e-14, global = -5.13126e-16, cumulative = 3.94243e-13
smoothSolver:  Solving for omega, Initial residual = 0.00550013, Final residual = 9.2728e-13, No Iterations 47
bounding omega, min: -0.0756219 max: 63.6462 average: 0.146618
smoothSolver:  Solving for k, Initial residual = 0.0110975, Final residual = 8.78679e-13, No Iterations 56
ExecutionTime = 1477.29 s  ClockTime = 1477 s

forceCoeffs forceCoeffs write:
    Coefficient	Total	Pressure	Viscous	Internal
    Cd:	0.00226581	0.00218369	8.21233e-05	0
    Cd(f):	0.00158682	0.00154817	3.86443e-05	0
    Cd(r):	0.000678998	0.000635519	4.3479e-05	0
    Cl:	-0.000907818	-0.000912653	4.83472e-06	0
    Cl(f):	-0.000454548	-0.000456326	1.77866e-06	0
    Cl(r):	-0.00045327	-0.000456326	3.05607e-06	0
    CmPitch:	-6.38704e-07	-5.3807e-15	-6.38704e-07	0
    CmRoll:	0.000453909	0.000456326	-2.41736e-06	0
    CmYaw:	0.00113291	0.00109184	4.10617e-05	0
    Cs:	-2.57628e-23	-5.24774e-23	2.67146e-23	0
    Cs(f):	0.00113291	0.00109184	4.10617e-05	0
    Cs(r):	-0.00113291	-0.00109184	-4.10617e-05	0

    writing force and moment coefficient files.

Time = 1993

smoothSolver:  Solving for Ux, Initial residual = 0.0266147, Final residual = 7.54202e-13, No Iterations 76
smoothSolver:  Solving for Uy, Initial residual = 0.0396554, Final residual = 8.41514e-13, No Iterations 78
GAMG:  Solving for p, Initial residual = 0.0180983, Final residual = 8.54161e-13, No Iterations 42
time step continuity errors : sum local = 1.45565e-14, global = 4.81983e-16, cumulative = 3.94725e-13
smoothSolver:  Solving for omega, Initial residual = 0.00565728, Final residual = 8.06167e-13, No Iterations 48
bounding omega, min: -0.076259 max: 63.6633 average: 0.146292
smoothSolver:  Solving for k, Initial residual = 0.0111726, Final residual = 9.69886e-13, No Iterations 56
ExecutionTime = 1478.05 s  ClockTime = 1478 s

forceCoeffs forceCoeffs write:
    Coefficient	Total	Pressure	Viscous	Internal
    Cd:	0.00230108	0.00221812	8.29553e-05	0
    Cd(f):	0.0017412	0.00169866	4.25392e-05	0
    Cd(r):	0.00055988	0.000519464	4.0416e-05	0
    Cl:	-0.00118132	-0.00117919	-2.12321e-06	0
    Cl(f):	-0.000590492	-0.000589596	-8.95835e-07	0
    Cl(r):	-0.000590824	-0.000589596	-1.22738e-06	0
    CmPitch:	1.65771e-07	-6.93435e-15	1.65771e-07	0
    CmRoll:	0.000590658	0.000589596	1.06161e-06	0
    CmYaw:	0.00115054	0.00110906	4.14776e-05	0
    Cs:	-2.76713e-23	-5.83953e-23	3.0724e-23	0
    Cs(f):	0.00115054	0.00110906	4.14776e-05	0
    Cs(r):	-0.00115054	-0.00110906	-4.14776e-05	0

    writing force and moment coefficient files.

Time = 1994

smoothSolver:  Solving for Ux, Initial residual = 0.0267853, Final residual = 7.57272e-13, No Iterations 76
smoothSolver:  Solving for Uy, Initial residual = 0.0394329, Final residual = 8.32827e-13, No Iterations 78
GAMG:  Solving for p, Initial residual = 0.0181533, Final residual = 7.90885e-13, No Iterations 40
time step continuity errors : sum local = 1.34101e-14, global = 3.97193e-16, cumulative = 3.95122e-13
smoothSolver:  Solving for omega, Initial residual = 0.00569593, Final residual = 7.61852e-13, No Iterations 49
bounding omega, min: -0.0771638 max: 63.6385 average: 0.146157
smoothSolver:  Solving for k, Initial residual = 0.0112306, Final residual = 7.75029e-13, No Iterations 57
ExecutionTime = 1478.76 s  ClockTime = 1479 s

forceCoeffs forceCoeffs write:
    Coefficient	Total	Pressure	Viscous	Internal
    Cd:	0.00234582	0.00226181	8.40084e-05	0
    Cd(f):	0.00189127	0.00184446	4.68165e-05	0
    Cd(r):	0.000454543	0.000417352	3.71918e-05	0
    Cl:	-0.00143673	-0.0014271	-9.62474e-06	0
    Cl(f):	-0.000717119	-0.000713552	-3.56691e-06	0
    Cl(r):	-0.00071961	-0.000713552	-6.05783e-06	0
    CmPitch:	1.24546e-06	-7.74738e-15	1.24546e-06	0
    CmRoll:	0.000718365	0.000713552	4.81237e-06	0
    CmYaw:	0.00117291	0.0011309	4.20042e-05	0
    Cs:	-3.04889e-23	-6.37806e-23	3.32916e-23	0
    Cs(f):	0.00117291	0.0011309	4.20042e-05	0
    Cs(r):	-0.00117291	-0.0011309	-4.20042e-05	0

    writing force and moment coefficient files.

Time = 1995

smoothSolver:  Solving for Ux, Initial residual = 0.0269209, Final residual = 7.6194e-13, No Iterations 76
smoothSolver:  Solving for Uy, Initial residual = 0.039127, Final residual = 8.22507e-13, No Iterations 78
GAMG:  Solving for p, Initial residual = 0.0181902, Final residual = 8.00474e-13, No Iterations 42
time step continuity errors : sum local = 1.3513e-14, global = 5.61686e-16, cumulative = 3.95684e-13
smoothSolver:  Solving for omega, Initial residual = 0.0057065, Final residual = 9.0015e-13, No Iterations 49
bounding omega, min: -0.0758297 max: 63.6214 average: 0.146712
smoothSolver:  Solving for k, Initial residual = 0.0112288, Final residual = 9.00123e-13, No Iterations 57
ExecutionTime = 1479.45 s  ClockTime = 1480 s

forceCoeffs forceCoeffs write:
    Coefficient	Total	Pressure	Viscous	Internal
    Cd:	0.00239793	0.0023128	8.51222e-05	0
    Cd(f):	0.00203321	0.00198198	5.12232e-05	0
    Cd(r):	0.00036472	0.000330821	3.3899e-05	0
    Cl:	-0.00166849	-0.00165116	-1.73242e-05	0
    Cl(f):	-0.000831715	-0.000825581	-6.13482e-06	0
    Cl(r):	-0.00083677	-0.000825581	-1.11893e-05	0
    CmPitch:	2.52726e-06	-8.10523e-15	2.52726e-06	0
    CmRoll:	0.000834243	0.000825581	8.66208e-06	0
    CmYaw:	0.00119896	0.0011564	4.25611e-05	0
    Cs:	-2.83925e-23	-6.84284e-23	4.00358e-23	0
    Cs(f):	0.00119896	0.0011564	4.25611e-05	0
    Cs(r):	-0.00119896	-0.0011564	-4.25611e-05	0

    writing force and moment coefficient files.

Time = 1996

smoothSolver:  Solving for Ux, Initial residual = 0.0270256, Final residual = 7.68306e-13, No Iterations 76
smoothSolver:  Solving for Uy, Initial residual = 0.0387433, Final residual = 8.10817e-13, No Iterations 78
GAMG:  Solving for p, Initial residual = 0.018297, Final residual = 9.97125e-13, No Iterations 42
time step continuity errors : sum local = 1.67634e-14, global = 7.20198e-16, cumulative = 3.96404e-13
smoothSolver:  Solving for omega, Initial residual = 0.00553606, Final residual = 9.40286e-13, No Iterations 49
bounding omega, min: -0.0760743 max: 63.6207 average: 0.146719
smoothSolver:  Solving for k, Initial residual = 0.0111887, Final residual = 9.58323e-13, No Iterations 57
ExecutionTime = 1480.15 s  ClockTime = 1480 s

forceCoeffs forceCoeffs write:
    Coefficient	Total	Pressure	Viscous	Internal
    Cd:	0.0024616	0.00237512	8.64865e-05	0
    Cd(f):	0.00217115	0.0021158	5.53495e-05	0
    Cd(r):	0.000290453	0.000259316	3.1137e-05	0
    Cl:	-0.0018807	-0.00185649	-2.42125e-05	0
    Cl(f):	-0.000936847	-0.000928243	-8.60431e-06	0
    Cl(r):	-0.000943851	-0.000928243	-1.56082e-05	0
    CmPitch:	3.50194e-06	-8.21954e-15	3.50194e-06	0
    CmRoll:	0.000940349	0.000928243	1.21063e-05	0
    CmYaw:	0.0012308	0.00118756	4.32433e-05	0
    Cs:	-3.55581e-23	-7.27272e-23	3.71691e-23	0
    Cs(f):	0.0012308	0.00118756	4.32433e-05	0
    Cs(r):	-0.0012308	-0.00118756	-4.32433e-05	0

    writing force and moment coefficient files.

Time = 1997

smoothSolver:  Solving for Ux, Initial residual = 0.0270911, Final residual = 7.741e-13, No Iterations 76
smoothSolver:  Solving for Uy, Initial residual = 0.0383121, Final residual = 7.98628e-13, No Iterations 78
GAMG:  Solving for p, Initial residual = 0.0183047, Final residual = 6.89153e-13, No Iterations 43
time step continuity errors : sum local = 1.1552e-14, global = 4.79795e-16, cumulative = 3.96884e-13
smoothSolver:  Solving for omega, Initial residual = 0.00545168, Final residual = 9.24614e-13, No Iterations 49
bounding omega, min: -0.0773415 max: 63.6356 average: 0.146997
smoothSolver:  Solving for k, Initial residual = 0.0111468, Final residual = 9.78778e-13, No Iterations 57
ExecutionTime = 1480.86 s  ClockTime = 1481 s

forceCoeffs forceCoeffs write:
    Coefficient	Total	Pressure	Viscous	Internal
    Cd:	0.00253217	0.0024448	8.73706e-05	0
    Cd(f):	0.00230034	0.0022416	5.87363e-05	0
    Cd(r):	0.000231826	0.000203191	2.86343e-05	0
    Cl:	-0.00206851	-0.00203841	-3.0102e-05	0
    Cl(f):	-0.00103019	-0.00101921	-1.0987e-05	0
    Cl(r):	-0.00103832	-0.00101921	-1.9115e-05	0
    CmPitch:	4.06399e-06	-7.29669e-15	4.06399e-06	0
    CmRoll:	0.00103426	0.00101921	1.5051e-05	0
    CmYaw:	0.00126608	0.0012224	4.36853e-05	0
    Cs:	-4.04875e-23	-7.63317e-23	3.58441e-23	0
    Cs(f):	0.00126608	0.0012224	4.36853e-05	0
    Cs(r):	-0.00126608	-0.0012224	-4.36853e-05	0

    writing force and moment coefficient files.

Time = 1998

smoothSolver:  Solving for Ux, Initial residual = 0.0271049, Final residual = 7.78255e-13, No Iterations 76
smoothSolver:  Solving for Uy, Initial residual = 0.0378466, Final residual = 7.86686e-13, No Iterations 78
GAMG:  Solving for p, Initial residual = 0.0181579, Final residual = 7.25256e-13, No Iterations 43
time step continuity errors : sum local = 1.21279e-14, global = 5.11526e-16, cumulative = 3.97395e-13
smoothSolver:  Solving for omega, Initial residual = 0.00538329, Final residual = 7.98901e-13, No Iterations 49
bounding omega, min: -0.0758795 max: 63.6552 average: 0.147116
smoothSolver:  Solving for k, Initial residual = 0.0110947, Final residual = 9.13096e-13, No Iterations 57
ExecutionTime = 1481.56 s  ClockTime = 1482 s

forceCoeffs forceCoeffs write:
    Coefficient	Total	Pressure	Viscous	Internal
    Cd:	0.00260797	0.00251987	8.81008e-05	0
    Cd(f):	0.00241931	0.00235749	6.18162e-05	0
    Cd(r):	0.000188659	0.000162374	2.62846e-05	0
    Cl:	-0.00223065	-0.00219512	-3.55317e-05	0
    Cl(f):	-0.00111079	-0.00109756	-1.32342e-05	0
    Cl(r):	-0.00111986	-0.00109756	-2.22974e-05	0
    CmPitch:	4.53159e-06	-6.28016e-15	4.53159e-06	0
    CmRoll:	0.00111533	0.00109756	1.77658e-05	0
    CmYaw:	0.00130398	0.00125993	4.40504e-05	0
    Cs:	-4.26444e-23	-7.89865e-23	3.63421e-23	0
    Cs(f):	0.00130398	0.00125993	4.40504e-05	0
    Cs(r):	-0.00130398	-0.00125993	-4.40504e-05	0

    writing force and moment coefficient files.

Time = 1999

smoothSolver:  Solving for Ux, Initial residual = 0.0270825, Final residual = 7.80115e-13, No Iterations 76
smoothSolver:  Solving for Uy, Initial residual = 0.0373657, Final residual = 7.76183e-13, No Iterations 78
GAMG:  Solving for p, Initial residual = 0.0179609, Final residual = 7.06411e-13, No Iterations 43
time step continuity errors : sum local = 1.17983e-14, global = 4.97237e-16, cumulative = 3.97892e-13
smoothSolver:  Solving for omega, Initial residual = 0.00521684, Final residual = 7.71091e-13, No Iterations 49
bounding omega, min: -0.0761913 max: 63.682 average: 0.147327
smoothSolver:  Solving for k, Initial residual = 0.0110056, Final residual = 7.75411e-13, No Iterations 57
ExecutionTime = 1482.26 s  ClockTime = 1482 s

forceCoeffs forceCoeffs write:
    Coefficient	Total	Pressure	Viscous	Internal
    Cd:	0.00268817	0.00259946	8.87175e-05	0
    Cd(f):	0.00252831	0.00246371	6.45975e-05	0
    Cd(r):	0.000159867	0.000135747	2.412e-05	0
    Cl:	-0.00236844	-0.00232796	-4.04776e-05	0
    Cl(f):	-0.00117933	-0.00116398	-1.53452e-05	0
    Cl(r):	-0.00118911	-0.00116398	-2.51324e-05	0
    CmPitch:	4.89357e-06	-4.92572e-15	4.89357e-06	0
    CmRoll:	0.00118422	0.00116398	2.02388e-05	0
    CmYaw:	0.00134409	0.00129973	4.43587e-05	0
    Cs:	-4.2558e-23	-8.07671e-23	3.82091e-23	0
    Cs(f):	0.00134409	0.00129973	4.43587e-05	0
    Cs(r):	-0.00134409	-0.00129973	-4.43587e-05	0

    writing force and moment coefficient files.

Time = 2000

smoothSolver:  Solving for Ux, Initial residual = 0.0270106, Final residual = 7.80545e-13, No Iterations 76
smoothSolver:  Solving for Uy, Initial residual = 0.036909, Final residual = 7.67542e-13, No Iterations 78
GAMG:  Solving for p, Initial residual = 0.0177688, Final residual = 8.705e-13, No Iterations 42
time step continuity errors : sum local = 1.45367e-14, global = 6.85945e-16, cumulative = 3.98578e-13
smoothSolver:  Solving for omega, Initial residual = 0.00510539, Final residual = 7.17593e-13, No Iterations 49
bounding omega, min: -0.0758736 max: 63.7029 average: 0.147323
smoothSolver:  Solving for k, Initial residual = 0.0109004, Final residual = 6.86908e-13, No Iterations 57
ExecutionTime = 1483.2 s  ClockTime = 1483 s

forceCoeffs forceCoeffs write:
    Coefficient	Total	Pressure	Viscous	Internal
    Cd:	0.00276834	0.00267908	8.92691e-05	0
    Cd(f):	0.00262477	0.00255768	6.70869e-05	0
    Cd(r):	0.000143578	0.000121396	2.21821e-05	0
    Cl:	-0.00248119	-0.00243628	-4.49048e-05	0
    Cl(f):	-0.00123543	-0.00121814	-1.72914e-05	0
    Cl(r):	-0.00124575	-0.00121814	-2.76134e-05	0
    CmPitch:	5.16098e-06	-3.39517e-15	5.16098e-06	0
    CmRoll:	0.00124059	0.00121814	2.24524e-05	0
    CmYaw:	0.00138417	0.00133954	4.46345e-05	0
    Cs:	-4.02114e-23	-8.16579e-23	4.14465e-23	0
    Cs(f):	0.00138417	0.00133954	4.46345e-05	0
    Cs(r):	-0.00138417	-0.00133954	-4.46345e-05	0

    writing force and moment coefficient files.

streamLine streamlines write:
    seeded 0 particles
    Tracks:0
    Total samples:0
End

