/*---------------------------------------------------------------------------*\
| =========                 |                                                 |
| \\      /  F ield         | OpenFOAM: The Open Source CFD Toolbox           |
|  \\    /   O peration     | Version:  2312                                  |
|   \\  /    A nd           | Website:  www.openfoam.com                      |
|    \\/     M anipulation  |                                                 |
\*---------------------------------------------------------------------------*/
Build  : _c39a0f64-20231220 OPENFOAM=2312 version=2312
Arch   : "LSB;label=32;scalar=64"
Exec   : simpleFoam
Date   : Jun 05 2024
Time   : 20:14:44
Host   : Manas
PID    : 99833
I/O    : uncollated
Case   : /home/manascfd/Masters_Projects_Main/CF_Ke_1
nProcs : 1
trapFpe: Floating point exception trapping enabled (FOAM_SIGFPE).
fileModificationChecking : Monitoring run-time modified files using timeStampMaster (fileModificationSkew 5, maxFileModificationPolls 20)
allowSystemOperations : Allowing user-supplied system call operations

// * * * * * * * * * * * * * * * * * * * * * * * * * * * * * * * * * * * * * //
Create time

Create mesh for time = 0


SIMPLE: convergence criteria
    field p	 tolerance 1e-12
    field U	 tolerance 1e-12
    field "(k|epsilon|omega|f|v2)"	 tolerance 1e-12

Reading field p

Reading field U

Reading/calculating face flux field phi

Selecting incompressible transport model Newtonian
Selecting turbulence model type RAS
Selecting RAS turbulence model kEpsilon
RAS
{
    RASModel        kEpsilon;
    turbulence      on;
    printCoeffs     on;
    Cmu             0.09;
    C1              1.44;
    C2              1.92;
    C3              0;
    sigmak          1;
    sigmaEps        1.3;
}

No MRF models present

No finite volume options present

Starting time loop

forceCoeffs forceCoeffs:
    rho: rhoInf
    Freestream density (rhoInf) set to 1
    Not including porosity effects
    magUInf: 1
    lRef   : 1
    Aref   : 1
    rhoInf : 1
    Selecting all coefficients
    - Drag force: Cd
    - Drag force front: Cd(f)
    - Drag force rear: Cd(r)
    - Lift force: Cl
    - Lift force front: Cl(f)
    - Lift force rear: Cl(r)
    - Pitch moment: CmPitch
    - Roll moment: CmRoll
    - Yaw moment: CmYaw
    - Side force: Cs
    - Side force front: Cs(f)
    - Side force rear: Cs(r)


Sampled set:
    sampleLine_U -> raw

streamLine streamlines:
    Employing velocity field U
    automatic track length specified through number of sub cycles : 5

Time = 1

smoothSolver:  Solving for Ux, Initial residual = 1, Final residual = 8.75286e-13, No Iterations 68
smoothSolver:  Solving for Uy, Initial residual = 1, Final residual = 7.35349e-13, No Iterations 72
GAMG:  Solving for p, Initial residual = 1, Final residual = 1.04269e-11, No Iterations 1000
time step continuity errors : sum local = 8.33031e-13, global = 1.87684e-15, cumulative = 1.87684e-15
smoothSolver:  Solving for epsilon, Initial residual = 0.909483, Final residual = 8.366e-13, No Iterations 73
bounding epsilon, min: -0.000330668 max: 0.0432174 average: 0.000980839
smoothSolver:  Solving for k, Initial residual = 1, Final residual = 7.56911e-13, No Iterations 67
bounding k, min: -0.00229552 max: 0.0662195 average: 0.0038312
ExecutionTime = 6.34 s  ClockTime = 6 s

forceCoeffs forceCoeffs write:
    Coefficient	Total	Pressure	Viscous	Internal
    Cd:	0.325286	0.32484	0.000445583	0
    Cd(f):	0.160754	0.160534	0.00022065	0
    Cd(r):	0.164532	0.164307	0.000224933	0
    Cl:	0.00377768	0.0037734	4.28349e-06	0
    Cl(f):	0.00188863	0.0018867	1.93552e-06	0
    Cl(r):	0.00188905	0.0018867	2.34797e-06	0
    CmPitch:	-2.06224e-07	8.49234e-15	-2.06224e-07	0
    CmRoll:	-0.00188884	-0.0018867	-2.14174e-06	0
    CmYaw:	0.162643	0.16242	0.000222791	0
    Cs:	-7.27655e-20	-6.21686e-20	-1.05969e-20	0
    Cs(f):	0.162643	0.16242	0.000222791	0
    Cs(r):	-0.162643	-0.16242	-0.000222791	0

    writing force and moment coefficient files.

Time = 2

smoothSolver:  Solving for Ux, Initial residual = 0.367605, Final residual = 8.21233e-13, No Iterations 73
smoothSolver:  Solving for Uy, Initial residual = 0.612601, Final residual = 9.74276e-13, No Iterations 71
GAMG:  Solving for p, Initial residual = 0.0960959, Final residual = 6.57315e-13, No Iterations 43
time step continuity errors : sum local = 2.23281e-12, global = 5.74915e-14, cumulative = 5.93684e-14
smoothSolver:  Solving for epsilon, Initial residual = 0.537156, Final residual = 7.12187e-13, No Iterations 56
bounding epsilon, min: -0.00806425 max: 0.192846 average: 0.00105611
smoothSolver:  Solving for k, Initial residual = 0.522133, Final residual = 9.78251e-13, No Iterations 62
bounding k, min: -0.0112952 max: 0.443153 average: 0.00401295
ExecutionTime = 7.07 s  ClockTime = 7 s

forceCoeffs forceCoeffs write:
    Coefficient	Total	Pressure	Viscous	Internal
    Cd:	0.577548	0.574668	0.00288006	0
    Cd(f):	0.291562	0.2901	0.00146163	0
    Cd(r):	0.285986	0.284568	0.00141843	0
    Cl:	-0.00557561	-0.0055324	-4.3202e-05	0
    Cl(f):	-0.00279973	-0.0027662	-3.35312e-05	0
    Cl(r):	-0.00277587	-0.0027662	-9.6708e-06	0
    CmPitch:	-1.19302e-05	3.9346e-14	-1.19302e-05	0
    CmRoll:	0.0027878	0.0027662	2.1601e-05	0
    CmYaw:	0.288774	0.287334	0.00144003	0
    Cs:	2.88935e-20	-1.56915e-20	4.45851e-20	0
    Cs(f):	0.288774	0.287334	0.00144003	0
    Cs(r):	-0.288774	-0.287334	-0.00144003	0

    writing force and moment coefficient files.

Time = 3

smoothSolver:  Solving for Ux, Initial residual = 0.18113, Final residual = 9.41705e-13, No Iterations 71
smoothSolver:  Solving for Uy, Initial residual = 0.535145, Final residual = 7.25696e-13, No Iterations 74
GAMG:  Solving for p, Initial residual = 0.168224, Final residual = 6.64388e-13, No Iterations 46
time step continuity errors : sum local = 5.80096e-13, global = 2.91346e-14, cumulative = 8.8503e-14
smoothSolver:  Solving for epsilon, Initial residual = 0.30899, Final residual = 9.39395e-13, No Iterations 52
bounding epsilon, min: -0.00526288 max: 0.326305 average: 0.00120208
smoothSolver:  Solving for k, Initial residual = 0.322251, Final residual = 8.18511e-13, No Iterations 60
bounding k, min: -0.0104019 max: 0.470855 average: 0.00419931
ExecutionTime = 7.78 s  ClockTime = 8 s

forceCoeffs forceCoeffs write:
    Coefficient	Total	Pressure	Viscous	Internal
    Cd:	0.812991	0.809534	0.00345733	0
    Cd(f):	0.411852	0.410097	0.00175527	0
    Cd(r):	0.401139	0.399437	0.00170206	0
    Cl:	-0.0107124	-0.0106592	-5.32065e-05	0
    Cl(f):	-0.00536255	-0.00532958	-3.29656e-05	0
    Cl(r):	-0.00534982	-0.00532958	-2.02408e-05	0
    CmPitch:	-6.36239e-06	6.31315e-14	-6.36239e-06	0
    CmRoll:	0.00535618	0.00532958	2.66032e-05	0
    CmYaw:	0.406496	0.404767	0.00172866	0
    Cs:	-1.20329e-20	-1.51962e-20	3.16333e-21	0
    Cs(f):	0.406496	0.404767	0.00172866	0
    Cs(r):	-0.406496	-0.404767	-0.00172866	0

    writing force and moment coefficient files.

Time = 4

smoothSolver:  Solving for Ux, Initial residual = 0.0881815, Final residual = 9.02869e-13, No Iterations 71
smoothSolver:  Solving for Uy, Initial residual = 0.358136, Final residual = 7.25319e-13, No Iterations 75
GAMG:  Solving for p, Initial residual = 0.108609, Final residual = 5.92297e-13, No Iterations 44
time step continuity errors : sum local = 4.20204e-13, global = -1.31702e-14, cumulative = 7.53328e-14
smoothSolver:  Solving for epsilon, Initial residual = 0.251107, Final residual = 7.6451e-13, No Iterations 63
bounding epsilon, min: -0.00201679 max: 0.271597 average: 0.00124873
smoothSolver:  Solving for k, Initial residual = 0.261839, Final residual = 7.86241e-13, No Iterations 59
ExecutionTime = 8.53 s  ClockTime = 9 s

forceCoeffs forceCoeffs write:
    Coefficient	Total	Pressure	Viscous	Internal
    Cd:	0.925146	0.921194	0.00395119	0
    Cd(f):	0.473232	0.471216	0.00201632	0
    Cd(r):	0.451913	0.449979	0.00193487	0
    Cl:	-0.0213186	-0.0212371	-8.14538e-05	0
    Cl(f):	-0.0106612	-0.0106185	-4.26713e-05	0
    Cl(r):	-0.0106573	-0.0106185	-3.87825e-05	0
    CmPitch:	-1.94441e-06	1.07486e-13	-1.94441e-06	0
    CmRoll:	0.0106593	0.0106185	4.07269e-05	0
    CmYaw:	0.462573	0.460597	0.0019756	0
    Cs:	-1.84803e-20	-1.77126e-20	-7.67703e-22	0
    Cs(f):	0.462573	0.460597	0.0019756	0
    Cs(r):	-0.462573	-0.460597	-0.0019756	0

    writing force and moment coefficient files.

Time = 5

smoothSolver:  Solving for Ux, Initial residual = 0.0525154, Final residual = 9.44683e-13, No Iterations 71
smoothSolver:  Solving for Uy, Initial residual = 0.235137, Final residual = 7.6895e-13, No Iterations 75
GAMG:  Solving for p, Initial residual = 0.0864803, Final residual = 6.61692e-13, No Iterations 42
time step continuity errors : sum local = 4.51912e-13, global = -1.90786e-14, cumulative = 5.62542e-14
smoothSolver:  Solving for epsilon, Initial residual = 0.183696, Final residual = 7.99348e-13, No Iterations 52
bounding epsilon, min: -0.00129052 max: 0.214548 average: 0.00120735
smoothSolver:  Solving for k, Initial residual = 0.182899, Final residual = 7.3706e-13, No Iterations 58
ExecutionTime = 9.22 s  ClockTime = 9 s

forceCoeffs forceCoeffs write:
    Coefficient	Total	Pressure	Viscous	Internal
    Cd:	1.00211	0.997643	0.00447126	0
    Cd(f):	0.514295	0.512008	0.0022867	0
    Cd(r):	0.487819	0.485634	0.00218456	0
    Cl:	-0.0264759	-0.0263738	-0.000102132	0
    Cl(f):	-0.0132361	-0.0131869	-4.92171e-05	0
    Cl(r):	-0.0132398	-0.0131869	-5.29149e-05	0
    CmPitch:	1.84888e-06	1.54176e-13	1.84888e-06	0
    CmRoll:	0.013238	0.0131869	5.1066e-05	0
    CmYaw:	0.501057	0.498821	0.00223563	0
    Cs:	-2.25203e-20	-2.09201e-20	-1.60015e-21	0
    Cs(f):	0.501057	0.498821	0.00223563	0
    Cs(r):	-0.501057	-0.498821	-0.00223563	0

    writing force and moment coefficient files.

Time = 6

smoothSolver:  Solving for Ux, Initial residual = 0.0389103, Final residual = 7.50264e-13, No Iterations 72
smoothSolver:  Solving for Uy, Initial residual = 0.168653, Final residual = 7.41512e-13, No Iterations 75
GAMG:  Solving for p, Initial residual = 0.0694718, Final residual = 8.28518e-13, No Iterations 41
time step continuity errors : sum local = 5.8327e-13, global = 4.08089e-15, cumulative = 6.03351e-14
smoothSolver:  Solving for epsilon, Initial residual = 0.125999, Final residual = 7.0069e-13, No Iterations 49
smoothSolver:  Solving for k, Initial residual = 0.121708, Final residual = 9.92062e-13, No Iterations 57
ExecutionTime = 9.93 s  ClockTime = 10 s

forceCoeffs forceCoeffs write:
    Coefficient	Total	Pressure	Viscous	Internal
    Cd:	1.03414	1.02915	0.00498916	0
    Cd(f):	0.530318	0.527762	0.00255596	0
    Cd(r):	0.503818	0.501385	0.00243321	0
    Cl:	-0.0264994	-0.0263767	-0.000122751	0
    Cl(f):	-0.0132475	-0.0131883	-5.91346e-05	0
    Cl(r):	-0.0132519	-0.0131883	-6.36166e-05	0
    CmPitch:	2.24098e-06	1.81205e-13	2.24098e-06	0
    CmRoll:	0.0132497	0.0131883	6.13756e-05	0
    CmYaw:	0.517068	0.514574	0.00249458	0
    Cs:	-2.57235e-20	-2.35652e-20	-2.15826e-21	0
    Cs(f):	0.517068	0.514574	0.00249458	0
    Cs(r):	-0.517068	-0.514574	-0.00249458	0

    writing force and moment coefficient files.

Time = 7

smoothSolver:  Solving for Ux, Initial residual = 0.0329107, Final residual = 7.98679e-13, No Iterations 72
smoothSolver:  Solving for Uy, Initial residual = 0.132997, Final residual = 9.38874e-13, No Iterations 74
GAMG:  Solving for p, Initial residual = 0.0564086, Final residual = 8.13864e-13, No Iterations 43
time step continuity errors : sum local = 6.09193e-13, global = -4.34539e-15, cumulative = 5.59897e-14
smoothSolver:  Solving for epsilon, Initial residual = 0.0956377, Final residual = 8.38937e-13, No Iterations 51
smoothSolver:  Solving for k, Initial residual = 0.089535, Final residual = 8.81922e-13, No Iterations 53
ExecutionTime = 10.64 s  ClockTime = 11 s

forceCoeffs forceCoeffs write:
    Coefficient	Total	Pressure	Viscous	Internal
    Cd:	1.02606	1.02056	0.00550143	0
    Cd(f):	0.524412	0.52159	0.00282177	0
    Cd(r):	0.501649	0.49897	0.00267966	0
    Cl:	-0.0227626	-0.0226205	-0.000142108	0
    Cl(f):	-0.0113759	-0.0113103	-6.56702e-05	0
    Cl(r):	-0.0113867	-0.0113103	-7.64379e-05	0
    CmPitch:	5.38384e-06	1.82498e-13	5.38384e-06	0
    CmRoll:	0.0113813	0.0113103	7.10541e-05	0
    CmYaw:	0.513031	0.51028	0.00275072	0
    Cs:	-2.82266e-20	-2.54344e-20	-2.79228e-21	0
    Cs(f):	0.513031	0.51028	0.00275072	0
    Cs(r):	-0.513031	-0.51028	-0.00275072	0

    writing force and moment coefficient files.

Time = 8

smoothSolver:  Solving for Ux, Initial residual = 0.0292562, Final residual = 8.31897e-13, No Iterations 72
smoothSolver:  Solving for Uy, Initial residual = 0.11735, Final residual = 8.31445e-13, No Iterations 74
GAMG:  Solving for p, Initial residual = 0.0468267, Final residual = 8.77027e-13, No Iterations 43
time step continuity errors : sum local = 7.02311e-13, global = -5.38592e-15, cumulative = 5.06038e-14
smoothSolver:  Solving for epsilon, Initial residual = 0.0770909, Final residual = 8.72991e-13, No Iterations 48
smoothSolver:  Solving for k, Initial residual = 0.0745684, Final residual = 9.2078e-13, No Iterations 52
ExecutionTime = 11.31 s  ClockTime = 11 s

forceCoeffs forceCoeffs write:
    Coefficient	Total	Pressure	Viscous	Internal
    Cd:	0.990663	0.984691	0.00597147	0
    Cd(f):	0.503078	0.499999	0.00307927	0
    Cd(r):	0.487585	0.484692	0.00289219	0
    Cl:	-0.0154932	-0.0153061	-0.000187079	0
    Cl(f):	-0.00774713	-0.00765307	-9.40654e-05	0
    Cl(r):	-0.00774608	-0.00765307	-9.30135e-05	0
    CmPitch:	-5.25932e-07	1.57572e-13	-5.25932e-07	0
    CmRoll:	0.0077466	0.00765307	9.35395e-05	0
    CmYaw:	0.495331	0.492346	0.00298573	0
    Cs:	-3.03315e-20	-2.66877e-20	-3.64382e-21	0
    Cs(f):	0.495331	0.492346	0.00298573	0
    Cs(r):	-0.495331	-0.492346	-0.00298573	0

    writing force and moment coefficient files.

Time = 9

smoothSolver:  Solving for Ux, Initial residual = 0.0267592, Final residual = 8.58469e-13, No Iterations 72
smoothSolver:  Solving for Uy, Initial residual = 0.105721, Final residual = 7.48407e-13, No Iterations 74
GAMG:  Solving for p, Initial residual = 0.0394291, Final residual = 6.63417e-13, No Iterations 44
time step continuity errors : sum local = 5.70449e-13, global = -2.04403e-14, cumulative = 3.01635e-14
smoothSolver:  Solving for epsilon, Initial residual = 0.0681104, Final residual = 7.0966e-13, No Iterations 48
smoothSolver:  Solving for k, Initial residual = 0.0635423, Final residual = 8.88843e-13, No Iterations 55
ExecutionTime = 12 s  ClockTime = 12 s

forceCoeffs forceCoeffs write:
    Coefficient	Total	Pressure	Viscous	Internal
    Cd:	0.94039	0.93403	0.00636009	0
    Cd(f):	0.473005	0.469731	0.00327348	0
    Cd(r):	0.467386	0.464299	0.00308661	0
    Cl:	-0.00561872	-0.00543185	-0.000186874	0
    Cl(f):	-0.00277123	-0.00271592	-5.53106e-05	0
    Cl(r):	-0.00284749	-0.00271592	-0.000131563	0
    CmPitch:	3.81263e-05	1.1087e-13	3.81263e-05	0
    CmRoll:	0.00280936	0.00271592	9.34369e-05	0
    CmYaw:	0.470195	0.467015	0.00318005	0
    Cs:	-3.15123e-20	-2.7487e-20	-4.02529e-21	0
    Cs(f):	0.470195	0.467015	0.00318005	0
    Cs(r):	-0.470195	-0.467015	-0.00318005	0

    writing force and moment coefficient files.

Time = 10

smoothSolver:  Solving for Ux, Initial residual = 0.0248059, Final residual = 8.74778e-13, No Iterations 72
smoothSolver:  Solving for Uy, Initial residual = 0.0952653, Final residual = 9.56673e-13, No Iterations 73
GAMG:  Solving for p, Initial residual = 0.0336442, Final residual = 6.30581e-13, No Iterations 44
time step continuity errors : sum local = 5.79915e-13, global = -2.13595e-14, cumulative = 8.80398e-15
smoothSolver:  Solving for epsilon, Initial residual = 0.0621032, Final residual = 9.46909e-13, No Iterations 51
smoothSolver:  Solving for k, Initial residual = 0.0572767, Final residual = 8.89202e-13, No Iterations 56
ExecutionTime = 12.72 s  ClockTime = 13 s

forceCoeffs forceCoeffs write:
    Coefficient	Total	Pressure	Viscous	Internal
    Cd:	0.885188	0.878485	0.00670267	0
    Cd(f):	0.442017	0.438625	0.00339274	0
    Cd(r):	0.443171	0.439861	0.00330993	0
    Cl:	0.00115323	0.00123604	-8.2811e-05	0
    Cl(f):	0.00062158	0.000618018	3.56141e-06	0
    Cl(r):	0.000531646	0.000618018	-8.63725e-05	0
    CmPitch:	4.49669e-05	6.44429e-14	4.49669e-05	0
    CmRoll:	-0.000576613	-0.000618018	4.14055e-05	0
    CmYaw:	0.442594	0.439243	0.00335133	0
    Cs:	-3.08834e-20	-2.82614e-20	-2.62198e-21	0
    Cs(f):	0.442594	0.439243	0.00335133	0
    Cs(r):	-0.442594	-0.439243	-0.00335133	0

    writing force and moment coefficient files.

Time = 11

smoothSolver:  Solving for Ux, Initial residual = 0.023535, Final residual = 8.7947e-13, No Iterations 72
smoothSolver:  Solving for Uy, Initial residual = 0.0862904, Final residual = 8.88428e-13, No Iterations 73
GAMG:  Solving for p, Initial residual = 0.0292164, Final residual = 9.17895e-13, No Iterations 43
time step continuity errors : sum local = 8.97591e-13, global = -2.72822e-14, cumulative = -1.84782e-14
smoothSolver:  Solving for epsilon, Initial residual = 0.0545726, Final residual = 9.2274e-13, No Iterations 46
smoothSolver:  Solving for k, Initial residual = 0.0536128, Final residual = 7.10371e-13, No Iterations 50
ExecutionTime = 13.43 s  ClockTime = 13 s

forceCoeffs forceCoeffs write:
    Coefficient	Total	Pressure	Viscous	Internal
    Cd:	0.830102	0.823018	0.00708359	0
    Cd(f):	0.40965	0.406084	0.00356566	0
    Cd(r):	0.420452	0.416934	0.00351793	0
    Cl:	0.0108028	0.0108505	-4.77258e-05	0
    Cl(f):	0.00543677	0.00542526	1.15103e-05	0
    Cl(r):	0.00536602	0.00542526	-5.92361e-05	0
    CmPitch:	3.53732e-05	2.02409e-14	3.53732e-05	0
    CmRoll:	-0.0054014	-0.00542526	2.38629e-05	0
    CmYaw:	0.415051	0.411509	0.0035418	0
    Cs:	-3.0711e-20	-2.85229e-20	-2.18812e-21	0
    Cs(f):	0.415051	0.411509	0.0035418	0
    Cs(r):	-0.415051	-0.411509	-0.0035418	0

    writing force and moment coefficient files.

Time = 12

smoothSolver:  Solving for Ux, Initial residual = 0.022713, Final residual = 8.72893e-13, No Iterations 72
smoothSolver:  Solving for Uy, Initial residual = 0.0796373, Final residual = 8.28331e-13, No Iterations 73
GAMG:  Solving for p, Initial residual = 0.0257204, Final residual = 7.18244e-13, No Iterations 43
time step continuity errors : sum local = 7.4308e-13, global = -2.11587e-14, cumulative = -3.96369e-14
smoothSolver:  Solving for epsilon, Initial residual = 0.0524705, Final residual = 7.32606e-13, No Iterations 46
smoothSolver:  Solving for k, Initial residual = 0.0488781, Final residual = 9.62352e-13, No Iterations 55
ExecutionTime = 14.11 s  ClockTime = 14 s

forceCoeffs forceCoeffs write:
    Coefficient	Total	Pressure	Viscous	Internal
    Cd:	0.77903	0.771672	0.00735795	0
    Cd(f):	0.379535	0.375836	0.00369937	0
    Cd(r):	0.399495	0.395836	0.00365858	0
    Cl:	0.0199594	0.0200002	-4.079e-05	0
    Cl(f):	0.010009	0.0100001	8.96258e-06	0
    Cl(r):	0.00995032	0.0100001	-4.97526e-05	0
    CmPitch:	2.93576e-05	-2.56438e-13	2.93576e-05	0
    CmRoll:	-0.00997968	-0.0100001	2.0395e-05	0
    CmYaw:	0.389515	0.385836	0.00367897	0
    Cs:	-3.05701e-20	-2.87359e-20	-1.83428e-21	0
    Cs(f):	0.389515	0.385836	0.00367897	0
    Cs(r):	-0.389515	-0.385836	-0.00367897	0

    writing force and moment coefficient files.

Time = 13

smoothSolver:  Solving for Ux, Initial residual = 0.0220561, Final residual = 8.55749e-13, No Iterations 72
smoothSolver:  Solving for Uy, Initial residual = 0.0741979, Final residual = 7.82247e-13, No Iterations 73
GAMG:  Solving for p, Initial residual = 0.022864, Final residual = 7.96832e-13, No Iterations 42
time step continuity errors : sum local = 8.66783e-13, global = -3.90069e-14, cumulative = -7.86438e-14
smoothSolver:  Solving for epsilon, Initial residual = 0.0484555, Final residual = 8.58438e-13, No Iterations 46
smoothSolver:  Solving for k, Initial residual = 0.0472191, Final residual = 7.619e-13, No Iterations 53
ExecutionTime = 14.81 s  ClockTime = 15 s

forceCoeffs forceCoeffs write:
    Coefficient	Total	Pressure	Viscous	Internal
    Cd:	0.737625	0.729984	0.00764105	0
    Cd(f):	0.354884	0.351054	0.00383021	0
    Cd(r):	0.382741	0.37893	0.00381084	0
    Cl:	0.0278572	0.0278766	-1.9365e-05	0
    Cl(f):	0.013959	0.0139383	2.07444e-05	0
    Cl(r):	0.0138982	0.0139383	-4.01094e-05	0
    CmPitch:	3.04269e-05	-2.93225e-13	3.04269e-05	0
    CmRoll:	-0.0139286	-0.0139383	9.68251e-06	0
    CmYaw:	0.368812	0.364992	0.00382053	0
    Cs:	-3.02298e-20	-2.89027e-20	-1.32705e-21	0
    Cs(f):	0.368812	0.364992	0.00382053	0
    Cs(r):	-0.368812	-0.364992	-0.00382053	0

    writing force and moment coefficient files.

Time = 14

smoothSolver:  Solving for Ux, Initial residual = 0.0215719, Final residual = 8.31241e-13, No Iterations 72
smoothSolver:  Solving for Uy, Initial residual = 0.0694881, Final residual = 7.51331e-13, No Iterations 73
GAMG:  Solving for p, Initial residual = 0.0205299, Final residual = 6.91748e-13, No Iterations 42
time step continuity errors : sum local = 7.8421e-13, global = -3.49643e-14, cumulative = -1.13608e-13
smoothSolver:  Solving for epsilon, Initial residual = 0.0434225, Final residual = 8.95342e-13, No Iterations 48
smoothSolver:  Solving for k, Initial residual = 0.0435672, Final residual = 8.88717e-13, No Iterations 47
ExecutionTime = 15.48 s  ClockTime = 15 s

forceCoeffs forceCoeffs write:
    Coefficient	Total	Pressure	Viscous	Internal
    Cd:	0.705812	0.697872	0.00793965	0
    Cd(f):	0.335327	0.331376	0.00395041	0
    Cd(r):	0.370485	0.366496	0.00398924	0
    Cl:	0.0351585	0.0351197	3.88269e-05	0
    Cl(f):	0.0176352	0.0175599	7.53126e-05	0
    Cl(r):	0.0175234	0.0175599	-3.64857e-05	0
    CmPitch:	5.58991e-05	-2.61344e-13	5.58991e-05	0
    CmRoll:	-0.0175793	-0.0175599	-1.94135e-05	0
    CmYaw:	0.352906	0.348936	0.00396982	0
    Cs:	-2.99856e-20	-2.89212e-20	-1.06436e-21	0
    Cs(f):	0.352906	0.348936	0.00396982	0
    Cs(r):	-0.352906	-0.348936	-0.00396982	0

    writing force and moment coefficient files.

Time = 15

smoothSolver:  Solving for Ux, Initial residual = 0.021274, Final residual = 8.01438e-13, No Iterations 72
smoothSolver:  Solving for Uy, Initial residual = 0.0650682, Final residual = 7.35845e-13, No Iterations 73
GAMG:  Solving for p, Initial residual = 0.0186999, Final residual = 5.80324e-13, No Iterations 42
time step continuity errors : sum local = 6.79995e-13, global = -3.09443e-14, cumulative = -1.44552e-13
smoothSolver:  Solving for epsilon, Initial residual = 0.0416198, Final residual = 9.24318e-13, No Iterations 48
smoothSolver:  Solving for k, Initial residual = 0.0411181, Final residual = 9.80618e-13, No Iterations 48
ExecutionTime = 16.16 s  ClockTime = 16 s

forceCoeffs forceCoeffs write:
    Coefficient	Total	Pressure	Viscous	Internal
    Cd:	0.684341	0.67609	0.00825056	0
    Cd(f):	0.32138	0.317288	0.00409171	0
    Cd(r):	0.362961	0.358802	0.00415885	0
    Cl:	0.0415815	0.0415144	6.71482e-05	0
    Cl(f):	0.0208592	0.0207572	0.000101974	0
    Cl(r):	0.0207224	0.0207572	-3.4826e-05	0
    CmPitch:	6.84001e-05	-2.71961e-13	6.84001e-05	0
    CmRoll:	-0.0207908	-0.0207572	-3.35741e-05	0
    CmYaw:	0.34217	0.338045	0.00412528	0
    Cs:	-2.98358e-20	-2.88773e-20	-9.58504e-22	0
    Cs(f):	0.34217	0.338045	0.00412528	0
    Cs(r):	-0.34217	-0.338045	-0.00412528	0

    writing force and moment coefficient files.

Time = 16

smoothSolver:  Solving for Ux, Initial residual = 0.0211688, Final residual = 7.707e-13, No Iterations 72
smoothSolver:  Solving for Uy, Initial residual = 0.0610521, Final residual = 7.319e-13, No Iterations 73
GAMG:  Solving for p, Initial residual = 0.0172652, Final residual = 9.11194e-13, No Iterations 41
time step continuity errors : sum local = 1.09084e-12, global = -2.99269e-14, cumulative = -1.74479e-13
smoothSolver:  Solving for epsilon, Initial residual = 0.0391659, Final residual = 9.28704e-13, No Iterations 57
smoothSolver:  Solving for k, Initial residual = 0.0390321, Final residual = 8.6428e-13, No Iterations 48
ExecutionTime = 16.87 s  ClockTime = 17 s

forceCoeffs forceCoeffs write:
    Coefficient	Total	Pressure	Viscous	Internal
    Cd:	0.673385	0.66487	0.00851481	0
    Cd(f):	0.313035	0.308829	0.00420622	0
    Cd(r):	0.360349	0.356041	0.00430859	0
    Cl:	0.0473144	0.047212	0.000102368	0
    Cl(f):	0.0237298	0.023606	0.000123836	0
    Cl(r):	0.0235845	0.023606	-2.1468e-05	0
    CmPitch:	7.2652e-05	-3.92941e-13	7.2652e-05	0
    CmRoll:	-0.0236572	-0.023606	-5.11841e-05	0
    CmYaw:	0.336692	0.332435	0.00425741	0
    Cs:	-2.96353e-20	-2.87279e-20	-9.07463e-22	0
    Cs(f):	0.336692	0.332435	0.00425741	0
    Cs(r):	-0.336692	-0.332435	-0.00425741	0

    writing force and moment coefficient files.

Time = 17

smoothSolver:  Solving for Ux, Initial residual = 0.0211778, Final residual = 7.39868e-13, No Iterations 72
smoothSolver:  Solving for Uy, Initial residual = 0.0572504, Final residual = 7.27717e-13, No Iterations 73
GAMG:  Solving for p, Initial residual = 0.0161772, Final residual = 7.40684e-13, No Iterations 41
time step continuity errors : sum local = 8.95769e-13, global = -2.2885e-14, cumulative = -1.97364e-13
smoothSolver:  Solving for epsilon, Initial residual = 0.0377698, Final residual = 9.958e-13, No Iterations 61
smoothSolver:  Solving for k, Initial residual = 0.037288, Final residual = 7.69628e-13, No Iterations 48
ExecutionTime = 17.54 s  ClockTime = 18 s

forceCoeffs forceCoeffs write:
    Coefficient	Total	Pressure	Viscous	Internal
    Cd:	0.674505	0.665673	0.00883251	0
    Cd(f):	0.311169	0.306818	0.00435134	0
    Cd(r):	0.363336	0.358855	0.00448117	0
    Cl:	0.0521671	0.0520372	0.000129832	0
    Cl(f):	0.0261488	0.0260186	0.000130155	0
    Cl(r):	0.0260183	0.0260186	-3.22624e-07	0
    CmPitch:	6.52388e-05	-5.57979e-13	6.52388e-05	0
    CmRoll:	-0.0260835	-0.0260186	-6.49162e-05	0
    CmYaw:	0.337253	0.332836	0.00441625	0
    Cs:	-2.91792e-20	-2.84476e-20	-7.31567e-22	0
    Cs(f):	0.337253	0.332836	0.00441625	0
    Cs(r):	-0.337253	-0.332836	-0.00441625	0

    writing force and moment coefficient files.

Time = 18

smoothSolver:  Solving for Ux, Initial residual = 0.0212228, Final residual = 9.81053e-13, No Iterations 71
smoothSolver:  Solving for Uy, Initial residual = 0.0535719, Final residual = 7.17654e-13, No Iterations 73
GAMG:  Solving for p, Initial residual = 0.015397, Final residual = 9.69516e-13, No Iterations 40
time step continuity errors : sum local = 1.16931e-12, global = -6.19122e-14, cumulative = -2.59277e-13
smoothSolver:  Solving for epsilon, Initial residual = 0.0354872, Final residual = 9.79842e-13, No Iterations 48
smoothSolver:  Solving for k, Initial residual = 0.0359288, Final residual = 9.42808e-13, No Iterations 50
ExecutionTime = 18.2 s  ClockTime = 18 s

forceCoeffs forceCoeffs write:
    Coefficient	Total	Pressure	Viscous	Internal
    Cd:	0.68636	0.677216	0.00914426	0
    Cd(f):	0.314937	0.310478	0.00445906	0
    Cd(r):	0.371424	0.366738	0.0046852	0
    Cl:	0.0564868	0.0562607	0.000226138	0
    Cl(f):	0.0283679	0.0281303	0.000237579	0
    Cl(r):	0.0281189	0.0281303	-1.14411e-05	0
    CmPitch:	0.00012451	-7.02523e-13	0.00012451	0
    CmRoll:	-0.0282434	-0.0281303	-0.000113069	0
    CmYaw:	0.34318	0.338608	0.00457213	0
    Cs:	-2.86472e-20	-2.80362e-20	-6.11029e-22	0
    Cs(f):	0.34318	0.338608	0.00457213	0
    Cs(r):	-0.34318	-0.338608	-0.00457213	0

    writing force and moment coefficient files.

Time = 19

smoothSolver:  Solving for Ux, Initial residual = 0.0212747, Final residual = 9.42236e-13, No Iterations 71
smoothSolver:  Solving for Uy, Initial residual = 0.0499207, Final residual = 9.86882e-13, No Iterations 72
GAMG:  Solving for p, Initial residual = 0.0148568, Final residual = 7.10096e-13, No Iterations 41
time step continuity errors : sum local = 8.43449e-13, global = 3.24349e-14, cumulative = -2.26842e-13
smoothSolver:  Solving for epsilon, Initial residual = 0.0341737, Final residual = 7.52695e-13, No Iterations 49
smoothSolver:  Solving for k, Initial residual = 0.0343261, Final residual = 8.80284e-13, No Iterations 48
ExecutionTime = 18.9 s  ClockTime = 19 s

forceCoeffs forceCoeffs write:
    Coefficient	Total	Pressure	Viscous	Internal
    Cd:	0.70737	0.697958	0.00941218	0
    Cd(f):	0.322764	0.318198	0.00456635	0
    Cd(r):	0.384606	0.37976	0.00484583	0
    Cl:	0.0618415	0.061562	0.000279479	0
    Cl(f):	0.0310669	0.030781	0.000285917	0
    Cl(r):	0.0307746	0.030781	-6.43725e-06	0
    CmPitch:	0.000146177	-7.99145e-13	0.000146177	0
    CmRoll:	-0.0309207	-0.030781	-0.00013974	0
    CmYaw:	0.353685	0.348979	0.00470609	0
    Cs:	-2.79983e-20	-2.74897e-20	-5.0854e-22	0
    Cs(f):	0.353685	0.348979	0.00470609	0
    Cs(r):	-0.353685	-0.348979	-0.00470609	0

    writing force and moment coefficient files.

Time = 20

smoothSolver:  Solving for Ux, Initial residual = 0.0212491, Final residual = 9.0713e-13, No Iterations 71
smoothSolver:  Solving for Uy, Initial residual = 0.0466345, Final residual = 9.69615e-13, No Iterations 72
GAMG:  Solving for p, Initial residual = 0.0144906, Final residual = 8.13866e-13, No Iterations 40
time step continuity errors : sum local = 9.42611e-13, global = 3.43607e-14, cumulative = -1.92481e-13
smoothSolver:  Solving for epsilon, Initial residual = 0.0324651, Final residual = 7.97531e-13, No Iterations 52
smoothSolver:  Solving for k, Initial residual = 0.0327922, Final residual = 9.70941e-13, No Iterations 55
ExecutionTime = 19.59 s  ClockTime = 20 s

forceCoeffs forceCoeffs write:
    Coefficient	Total	Pressure	Viscous	Internal
    Cd:	0.734706	0.725004	0.00970162	0
    Cd(f):	0.335086	0.330376	0.00470949	0
    Cd(r):	0.39962	0.394628	0.00499213	0
    Cl:	0.0645349	0.0642522	0.000282644	0
    Cl(f):	0.0323911	0.0321261	0.000264957	0
    Cl(r):	0.0321438	0.0321261	1.76872e-05	0
    CmPitch:	0.000123635	-8.26721e-13	0.000123635	0
    CmRoll:	-0.0322674	-0.0321261	-0.000141322	0
    CmYaw:	0.367353	0.362502	0.00485081	0
    Cs:	-2.72412e-20	-2.6883e-20	-3.58158e-22	0
    Cs(f):	0.367353	0.362502	0.00485081	0
    Cs(r):	-0.367353	-0.362502	-0.00485081	0

    writing force and moment coefficient files.

Time = 21

smoothSolver:  Solving for Ux, Initial residual = 0.0210841, Final residual = 8.80354e-13, No Iterations 71
smoothSolver:  Solving for Uy, Initial residual = 0.0436582, Final residual = 9.54241e-13, No Iterations 72
GAMG:  Solving for p, Initial residual = 0.014324, Final residual = 9.04008e-13, No Iterations 39
time step continuity errors : sum local = 1.01001e-12, global = 3.28673e-14, cumulative = -1.59614e-13
smoothSolver:  Solving for epsilon, Initial residual = 0.029721, Final residual = 8.95964e-13, No Iterations 53
smoothSolver:  Solving for k, Initial residual = 0.0314218, Final residual = 8.15244e-13, No Iterations 53
ExecutionTime = 20.24 s  ClockTime = 20 s

forceCoeffs forceCoeffs write:
    Coefficient	Total	Pressure	Viscous	Internal
    Cd:	0.764607	0.754569	0.0100386	0
    Cd(f):	0.348544	0.343682	0.00486183	0
    Cd(r):	0.416064	0.410887	0.00517682	0
    Cl:	0.0675199	0.067205	0.000314985	0
    Cl(f):	0.0339013	0.0336025	0.000298868	0
    Cl(r):	0.0336186	0.0336025	1.61166e-05	0
    CmPitch:	0.000141376	-8.26352e-13	0.000141376	0
    CmRoll:	-0.03376	-0.0336025	-0.000157492	0
    CmYaw:	0.382304	0.377284	0.00501932	0
    Cs:	-2.64019e-20	-2.61812e-20	-2.20677e-22	0
    Cs(f):	0.382304	0.377284	0.00501932	0
    Cs(r):	-0.382304	-0.377284	-0.00501932	0

    writing force and moment coefficient files.

Time = 22

smoothSolver:  Solving for Ux, Initial residual = 0.0208296, Final residual = 8.6761e-13, No Iterations 71
smoothSolver:  Solving for Uy, Initial residual = 0.0409477, Final residual = 9.4569e-13, No Iterations 72
GAMG:  Solving for p, Initial residual = 0.01438, Final residual = 7.56083e-13, No Iterations 38
time step continuity errors : sum local = 8.0941e-13, global = 4.2655e-14, cumulative = -1.16959e-13
smoothSolver:  Solving for epsilon, Initial residual = 0.0278763, Final residual = 7.86128e-13, No Iterations 57
smoothSolver:  Solving for k, Initial residual = 0.0304701, Final residual = 9.24113e-13, No Iterations 57
ExecutionTime = 20.93 s  ClockTime = 21 s

forceCoeffs forceCoeffs write:
    Coefficient	Total	Pressure	Viscous	Internal
    Cd:	0.793556	0.783233	0.0103234	0
    Cd(f):	0.362226	0.357238	0.00498838	0
    Cd(r):	0.43133	0.425995	0.00533503	0
    Cl:	0.0691037	0.0687571	0.000346648	0
    Cl(f):	0.0347303	0.0343785	0.000351714	0
    Cl(r):	0.0343735	0.0343785	-5.06592e-06	0
    CmPitch:	0.00017839	-7.73569e-13	0.00017839	0
    CmRoll:	-0.0345519	-0.0343785	-0.000173324	0
    CmYaw:	0.396778	0.391616	0.0051617	0
    Cs:	-2.55176e-20	-2.54381e-20	-7.94828e-23	0
    Cs(f):	0.396778	0.391616	0.0051617	0
    Cs(r):	-0.396778	-0.391616	-0.0051617	0

    writing force and moment coefficient files.

Time = 23

smoothSolver:  Solving for Ux, Initial residual = 0.0205059, Final residual = 8.61253e-13, No Iterations 71
smoothSolver:  Solving for Uy, Initial residual = 0.0386292, Final residual = 9.45064e-13, No Iterations 72
GAMG:  Solving for p, Initial residual = 0.0145953, Final residual = 6.264e-13, No Iterations 38
time step continuity errors : sum local = 6.38237e-13, global = 4.5175e-14, cumulative = -7.17837e-14
smoothSolver:  Solving for epsilon, Initial residual = 0.0254512, Final residual = 7.45426e-13, No Iterations 51
smoothSolver:  Solving for k, Initial residual = 0.0289092, Final residual = 7.51319e-13, No Iterations 55
ExecutionTime = 21.59 s  ClockTime = 22 s

forceCoeffs forceCoeffs write:
    Coefficient	Total	Pressure	Viscous	Internal
    Cd:	0.820104	0.809489	0.0106155	0
    Cd(f):	0.374488	0.369356	0.00513243	0
    Cd(r):	0.445616	0.440133	0.0054831	0
    Cl:	0.0711283	0.0707776	0.000350668	0
    Cl(f):	0.0357957	0.0353888	0.00040691	0
    Cl(r):	0.0353326	0.0353888	-5.6242e-05	0
    CmPitch:	0.000231576	-7.89093e-13	0.000231576	0
    CmRoll:	-0.0355641	-0.0353888	-0.000175334	0
    CmYaw:	0.410052	0.404744	0.00530776	0
    Cs:	-2.4622e-20	-2.4658e-20	3.60471e-23	0
    Cs(f):	0.410052	0.404744	0.00530776	0
    Cs(r):	-0.410052	-0.404744	-0.00530776	0

    writing force and moment coefficient files.

Time = 24

smoothSolver:  Solving for Ux, Initial residual = 0.0201365, Final residual = 8.59152e-13, No Iterations 71
smoothSolver:  Solving for Uy, Initial residual = 0.0365537, Final residual = 9.53226e-13, No Iterations 72
GAMG:  Solving for p, Initial residual = 0.0147703, Final residual = 7.65652e-13, No Iterations 38
time step continuity errors : sum local = 7.38362e-13, global = 4.51538e-14, cumulative = -2.66298e-14
smoothSolver:  Solving for epsilon, Initial residual = 0.0234711, Final residual = 8.82825e-13, No Iterations 58
smoothSolver:  Solving for k, Initial residual = 0.0276782, Final residual = 7.54035e-13, No Iterations 56
ExecutionTime = 22.26 s  ClockTime = 22 s

forceCoeffs forceCoeffs write:
    Coefficient	Total	Pressure	Viscous	Internal
    Cd:	0.842052	0.831219	0.0108337	0
    Cd(f):	0.385465	0.380219	0.00524584	0
    Cd(r):	0.456587	0.450999	0.00558786	0
    Cl:	0.0711222	0.0707802	0.000342016	0
    Cl(f):	0.0357842	0.0353901	0.000394162	0
    Cl(r):	0.0353379	0.0353901	-5.21455e-05	0
    CmPitch:	0.000223154	-8.10253e-13	0.000223154	0
    CmRoll:	-0.0355611	-0.0353901	-0.000171008	0
    CmYaw:	0.421026	0.415609	0.00541685	0
    Cs:	-2.37386e-20	-2.38749e-20	1.36283e-22	0
    Cs(f):	0.421026	0.415609	0.00541685	0
    Cs(r):	-0.421026	-0.415609	-0.00541685	0

    writing force and moment coefficient files.

Time = 25

smoothSolver:  Solving for Ux, Initial residual = 0.0197292, Final residual = 8.58363e-13, No Iterations 71
smoothSolver:  Solving for Uy, Initial residual = 0.0347597, Final residual = 9.66633e-13, No Iterations 72
GAMG:  Solving for p, Initial residual = 0.0149332, Final residual = 9.65839e-13, No Iterations 38
time step continuity errors : sum local = 8.78366e-13, global = 4.63383e-14, cumulative = 1.97085e-14
smoothSolver:  Solving for epsilon, Initial residual = 0.021562, Final residual = 8.44131e-13, No Iterations 51
smoothSolver:  Solving for k, Initial residual = 0.0261829, Final residual = 9.70246e-13, No Iterations 57
ExecutionTime = 22.96 s  ClockTime = 23 s

forceCoeffs forceCoeffs write:
    Coefficient	Total	Pressure	Viscous	Internal
    Cd:	0.860515	0.849465	0.0110499	0
    Cd(f):	0.395357	0.389985	0.00537256	0
    Cd(r):	0.465157	0.45948	0.00567732	0
    Cl:	0.0697999	0.0694951	0.000304759	0
    Cl(f):	0.0351184	0.0347476	0.000370889	0
    Cl(r):	0.0346814	0.0347476	-6.61306e-05	0
    CmPitch:	0.00021851	-8.10347e-13	0.00021851	0
    CmRoll:	-0.0348999	-0.0347476	-0.000152379	0
    CmYaw:	0.430257	0.424732	0.00552494	0
    Cs:	-2.28977e-20	-2.31135e-20	2.15812e-22	0
    Cs(f):	0.430257	0.424732	0.00552494	0
    Cs(r):	-0.430257	-0.424732	-0.00552494	0

    writing force and moment coefficient files.

Time = 26

smoothSolver:  Solving for Ux, Initial residual = 0.0192981, Final residual = 8.59638e-13, No Iterations 71
smoothSolver:  Solving for Uy, Initial residual = 0.033228, Final residual = 9.89013e-13, No Iterations 72
GAMG:  Solving for p, Initial residual = 0.0150563, Final residual = 9.09122e-13, No Iterations 39
time step continuity errors : sum local = 7.78237e-13, global = 2.64248e-14, cumulative = 4.61333e-14
smoothSolver:  Solving for epsilon, Initial residual = 0.0193576, Final residual = 8.51265e-13, No Iterations 51
smoothSolver:  Solving for k, Initial residual = 0.0252359, Final residual = 9.21535e-13, No Iterations 57
ExecutionTime = 23.63 s  ClockTime = 24 s

forceCoeffs forceCoeffs write:
    Coefficient	Total	Pressure	Viscous	Internal
    Cd:	0.8753	0.864098	0.0112019	0
    Cd(f):	0.403706	0.398256	0.00545013	0
    Cd(r):	0.471593	0.465842	0.00575174	0
    Cl:	0.0678872	0.0675856	0.000301615	0
    Cl(f):	0.0341447	0.0337928	0.00035187	0
    Cl(r):	0.0337425	0.0337928	-5.02552e-05	0
    CmPitch:	0.000201062	-7.74696e-13	0.000201062	0
    CmRoll:	-0.0339436	-0.0337928	-0.000150807	0
    CmYaw:	0.43765	0.432049	0.00560094	0
    Cs:	-2.20499e-20	-2.23281e-20	2.78198e-22	0
    Cs(f):	0.43765	0.432049	0.00560094	0
    Cs(r):	-0.43765	-0.432049	-0.00560094	0

    writing force and moment coefficient files.

Time = 27

smoothSolver:  Solving for Ux, Initial residual = 0.0188909, Final residual = 8.598e-13, No Iterations 71
smoothSolver:  Solving for Uy, Initial residual = 0.0320165, Final residual = 7.25975e-13, No Iterations 73
GAMG:  Solving for p, Initial residual = 0.0151697, Final residual = 9.40044e-13, No Iterations 39
time step continuity errors : sum local = 7.56914e-13, global = 2.8845e-14, cumulative = 7.49783e-14
smoothSolver:  Solving for epsilon, Initial residual = 0.0175876, Final residual = 8.88199e-13, No Iterations 51
smoothSolver:  Solving for k, Initial residual = 0.0236518, Final residual = 9.76189e-13, No Iterations 58
ExecutionTime = 24.31 s  ClockTime = 24 s

forceCoeffs forceCoeffs write:
    Coefficient	Total	Pressure	Viscous	Internal
    Cd:	0.887921	0.876517	0.0114035	0
    Cd(f):	0.411107	0.405543	0.00556467	0
    Cd(r):	0.476814	0.470975	0.00583882	0
    Cl:	0.0657063	0.0654322	0.000274148	0
    Cl(f):	0.0330296	0.0327161	0.000313516	0
    Cl(r):	0.0326767	0.0327161	-3.93688e-05	0
    CmPitch:	0.000176443	-7.12485e-13	0.000176443	0
    CmRoll:	-0.0328532	-0.0327161	-0.000137074	0
    CmYaw:	0.44396	0.438259	0.00570174	0
    Cs:	-2.12356e-20	-2.15617e-20	3.26081e-22	0
    Cs(f):	0.44396	0.438259	0.00570174	0
    Cs(r):	-0.44396	-0.438259	-0.00570174	0

    writing force and moment coefficient files.

Time = 28

smoothSolver:  Solving for Ux, Initial residual = 0.0184943, Final residual = 8.58216e-13, No Iterations 71
smoothSolver:  Solving for Uy, Initial residual = 0.0310926, Final residual = 7.46125e-13, No Iterations 73
GAMG:  Solving for p, Initial residual = 0.0152866, Final residual = 8.78862e-13, No Iterations 39
time step continuity errors : sum local = 6.66004e-13, global = 2.72907e-14, cumulative = 1.02269e-13
smoothSolver:  Solving for epsilon, Initial residual = 0.0160334, Final residual = 9.68348e-13, No Iterations 51
smoothSolver:  Solving for k, Initial residual = 0.0223421, Final residual = 9.36125e-13, No Iterations 58
ExecutionTime = 25.03 s  ClockTime = 25 s

forceCoeffs forceCoeffs write:
    Coefficient	Total	Pressure	Viscous	Internal
    Cd:	0.898597	0.887026	0.0115711	0
    Cd(f):	0.417838	0.412188	0.00564979	0
    Cd(r):	0.480759	0.474838	0.00592132	0
    Cl:	0.0629215	0.0626499	0.000271527	0
    Cl(f):	0.0316123	0.031325	0.000287319	0
    Cl(r):	0.0313092	0.031325	-1.57923e-05	0
    CmPitch:	0.000151556	-6.03362e-13	0.000151556	0
    CmRoll:	-0.0314607	-0.031325	-0.000135764	0
    CmYaw:	0.449299	0.443513	0.00578556	0
    Cs:	-2.04389e-20	-2.08006e-20	3.61729e-22	0
    Cs(f):	0.449299	0.443513	0.00578556	0
    Cs(r):	-0.449299	-0.443513	-0.00578556	0

    writing force and moment coefficient files.

Time = 29

smoothSolver:  Solving for Ux, Initial residual = 0.0181163, Final residual = 8.53654e-13, No Iterations 71
smoothSolver:  Solving for Uy, Initial residual = 0.0302656, Final residual = 7.66645e-13, No Iterations 73
GAMG:  Solving for p, Initial residual = 0.0153619, Final residual = 6.97569e-13, No Iterations 39
time step continuity errors : sum local = 4.97737e-13, global = 2.26869e-14, cumulative = 1.24956e-13
smoothSolver:  Solving for epsilon, Initial residual = 0.0145068, Final residual = 8.07828e-13, No Iterations 52
smoothSolver:  Solving for k, Initial residual = 0.0210536, Final residual = 7.68786e-13, No Iterations 59
ExecutionTime = 25.73 s  ClockTime = 26 s

forceCoeffs forceCoeffs write:
    Coefficient	Total	Pressure	Viscous	Internal
    Cd:	0.907017	0.895272	0.011745	0
    Cd(f):	0.423588	0.417851	0.00573739	0
    Cd(r):	0.483429	0.477421	0.00600764	0
    Cl:	0.0598412	0.0595709	0.000270258	0
    Cl(f):	0.0300779	0.0297855	0.000292431	0
    Cl(r):	0.0297633	0.0297855	-2.21728e-05	0
    CmPitch:	0.000157302	-4.92727e-13	0.000157302	0
    CmRoll:	-0.0299206	-0.0297855	-0.000135129	0
    CmYaw:	0.453509	0.447636	0.00587251	0
    Cs:	-1.96898e-20	-2.00719e-20	3.82096e-22	0
    Cs(f):	0.453509	0.447636	0.00587251	0
    Cs(r):	-0.453509	-0.447636	-0.00587251	0

    writing force and moment coefficient files.

Time = 30

smoothSolver:  Solving for Ux, Initial residual = 0.0177411, Final residual = 8.44571e-13, No Iterations 71
smoothSolver:  Solving for Uy, Initial residual = 0.0295318, Final residual = 7.81802e-13, No Iterations 73
GAMG:  Solving for p, Initial residual = 0.0154237, Final residual = 5.46027e-13, No Iterations 39
time step continuity errors : sum local = 3.67366e-13, global = 1.92027e-14, cumulative = 1.44159e-13
smoothSolver:  Solving for epsilon, Initial residual = 0.0133725, Final residual = 8.50945e-13, No Iterations 52
smoothSolver:  Solving for k, Initial residual = 0.0200317, Final residual = 9.74799e-13, No Iterations 59
ExecutionTime = 26.42 s  ClockTime = 26 s

forceCoeffs forceCoeffs write:
    Coefficient	Total	Pressure	Viscous	Internal
    Cd:	0.91318	0.901326	0.0118539	0
    Cd(f):	0.428423	0.42263	0.00579234	0
    Cd(r):	0.484757	0.478696	0.00606158	0
    Cl:	0.0563347	0.0560654	0.000269239	0
    Cl(f):	0.0283179	0.0280327	0.00028524	0
    Cl(r):	0.0280167	0.0280327	-1.60005e-05	0
    CmPitch:	0.00015062	-3.70452e-13	0.00015062	0
    CmRoll:	-0.0281673	-0.0280327	-0.00013462	0
    CmYaw:	0.45659	0.450663	0.00592696	0
    Cs:	-1.89895e-20	-1.93808e-20	3.91309e-22	0
    Cs(f):	0.45659	0.450663	0.00592696	0
    Cs(r):	-0.45659	-0.450663	-0.00592696	0

    writing force and moment coefficient files.

Time = 31

smoothSolver:  Solving for Ux, Initial residual = 0.0173849, Final residual = 8.32122e-13, No Iterations 71
smoothSolver:  Solving for Uy, Initial residual = 0.0288859, Final residual = 7.91711e-13, No Iterations 73
GAMG:  Solving for p, Initial residual = 0.0154737, Final residual = 8.77891e-13, No Iterations 38
time step continuity errors : sum local = 5.56969e-13, global = -8.36293e-15, cumulative = 1.35796e-13
smoothSolver:  Solving for epsilon, Initial residual = 0.0123442, Final residual = 8.54911e-13, No Iterations 52
smoothSolver:  Solving for k, Initial residual = 0.0187623, Final residual = 7.55683e-13, No Iterations 60
ExecutionTime = 27.12 s  ClockTime = 27 s

forceCoeffs forceCoeffs write:
    Coefficient	Total	Pressure	Viscous	Internal
    Cd:	0.916769	0.904779	0.0119899	0
    Cd(f):	0.432196	0.426333	0.005863	0
    Cd(r):	0.484573	0.478446	0.00612693	0
    Cl:	0.0523763	0.0521124	0.00026393	0
    Cl(f):	0.026325	0.0260562	0.000268822	0
    Cl(r):	0.0260513	0.0260562	-4.89176e-06	0
    CmPitch:	0.000136857	-2.32778e-13	0.000136857	0
    CmRoll:	-0.0261881	-0.0260562	-0.000131965	0
    CmYaw:	0.458384	0.452389	0.00599496	0
    Cs:	-1.83496e-20	-1.87414e-20	3.91794e-22	0
    Cs(f):	0.458384	0.452389	0.00599496	0
    Cs(r):	-0.458384	-0.452389	-0.00599496	0

    writing force and moment coefficient files.

Time = 32

smoothSolver:  Solving for Ux, Initial residual = 0.0170408, Final residual = 8.18814e-13, No Iterations 71
smoothSolver:  Solving for Uy, Initial residual = 0.0282198, Final residual = 8.0355e-13, No Iterations 73
GAMG:  Solving for p, Initial residual = 0.0155425, Final residual = 6.80242e-13, No Iterations 39
time step continuity errors : sum local = 4.07922e-13, global = 1.8717e-14, cumulative = 1.54513e-13
smoothSolver:  Solving for epsilon, Initial residual = 0.0114227, Final residual = 9.06595e-13, No Iterations 52
smoothSolver:  Solving for k, Initial residual = 0.0177556, Final residual = 8.8822e-13, No Iterations 60
ExecutionTime = 27.8 s  ClockTime = 28 s

forceCoeffs forceCoeffs write:
    Coefficient	Total	Pressure	Viscous	Internal
    Cd:	0.917687	0.905539	0.0121478	0
    Cd(f):	0.434953	0.429003	0.00595069	0
    Cd(r):	0.482734	0.476537	0.0061971	0
    Cl:	0.0477808	0.0475344	0.000246409	0
    Cl(f):	0.0239975	0.0237672	0.000230351	0
    Cl(r):	0.0237832	0.0237672	1.60581e-05	0
    CmPitch:	0.000107146	-1.04173e-13	0.000107146	0
    CmRoll:	-0.0238904	-0.0237672	-0.000123204	0
    CmYaw:	0.458844	0.45277	0.0060739	0
    Cs:	-1.77619e-20	-1.8152e-20	3.90039e-22	0
    Cs(f):	0.458844	0.45277	0.0060739	0
    Cs(r):	-0.458844	-0.45277	-0.0060739	0

    writing force and moment coefficient files.

Time = 33

smoothSolver:  Solving for Ux, Initial residual = 0.0167006, Final residual = 8.05614e-13, No Iterations 71
smoothSolver:  Solving for Uy, Initial residual = 0.0275796, Final residual = 8.18452e-13, No Iterations 73
GAMG:  Solving for p, Initial residual = 0.0156545, Final residual = 9.00457e-13, No Iterations 39
time step continuity errors : sum local = 5.10809e-13, global = 2.08051e-14, cumulative = 1.75318e-13
smoothSolver:  Solving for epsilon, Initial residual = 0.0106023, Final residual = 9.79731e-13, No Iterations 52
smoothSolver:  Solving for k, Initial residual = 0.0167488, Final residual = 9.66819e-13, No Iterations 60
ExecutionTime = 28.48 s  ClockTime = 28 s

forceCoeffs forceCoeffs write:
    Coefficient	Total	Pressure	Viscous	Internal
    Cd:	0.916034	0.903755	0.0122791	0
    Cd(f):	0.436657	0.430641	0.00601608	0
    Cd(r):	0.479377	0.473114	0.00626299	0
    Cl:	0.0427206	0.0424737	0.000246904	0
    Cl(f):	0.0214647	0.0212369	0.0002278	0
    Cl(r):	0.021256	0.0212369	1.91042e-05	0
    CmPitch:	0.000104348	1.19168e-14	0.000104348	0
    CmRoll:	-0.0213603	-0.0212369	-0.000123452	0
    CmYaw:	0.458017	0.451878	0.00613954	0
    Cs:	-1.72404e-20	-1.76213e-20	3.80889e-22	0
    Cs(f):	0.458017	0.451878	0.00613954	0
    Cs(r):	-0.458017	-0.451878	-0.00613954	0

    writing force and moment coefficient files.

Time = 34

smoothSolver:  Solving for Ux, Initial residual = 0.0163551, Final residual = 7.9128e-13, No Iterations 71
smoothSolver:  Solving for Uy, Initial residual = 0.0269259, Final residual = 8.33541e-13, No Iterations 73
GAMG:  Solving for p, Initial residual = 0.0157413, Final residual = 6.63116e-13, No Iterations 40
time step continuity errors : sum local = 3.56731e-13, global = 1.0392e-14, cumulative = 1.8571e-13
smoothSolver:  Solving for epsilon, Initial residual = 0.00989594, Final residual = 7.55371e-13, No Iterations 53
smoothSolver:  Solving for k, Initial residual = 0.015894, Final residual = 7.76833e-13, No Iterations 61
ExecutionTime = 29.19 s  ClockTime = 29 s

forceCoeffs forceCoeffs write:
    Coefficient	Total	Pressure	Viscous	Internal
    Cd:	0.912123	0.899704	0.0124189	0
    Cd(f):	0.437443	0.43135	0.00609299	0
    Cd(r):	0.47468	0.468354	0.00632593	0
    Cl:	0.0372376	0.0370046	0.000232944	0
    Cl(f):	0.0187017	0.0185023	0.000199362	0
    Cl(r):	0.0185359	0.0185023	3.35821e-05	0
    CmPitch:	8.28899e-05	1.12426e-13	8.28899e-05	0
    CmRoll:	-0.0186188	-0.0185023	-0.000116472	0
    CmYaw:	0.456062	0.449852	0.00620946	0
    Cs:	-1.67706e-20	-1.71391e-20	3.6847e-22	0
    Cs(f):	0.456062	0.449852	0.00620946	0
    Cs(r):	-0.456062	-0.449852	-0.00620946	0

    writing force and moment coefficient files.

Time = 35

smoothSolver:  Solving for Ux, Initial residual = 0.0160151, Final residual = 7.7662e-13, No Iterations 71
smoothSolver:  Solving for Uy, Initial residual = 0.0262909, Final residual = 8.49247e-13, No Iterations 73
GAMG:  Solving for p, Initial residual = 0.0158195, Final residual = 7.4805e-13, No Iterations 40
time step continuity errors : sum local = 3.82067e-13, global = 1.19781e-14, cumulative = 1.97688e-13
smoothSolver:  Solving for epsilon, Initial residual = 0.00923932, Final residual = 7.6053e-13, No Iterations 53
smoothSolver:  Solving for k, Initial residual = 0.0150752, Final residual = 8.43546e-13, No Iterations 61
ExecutionTime = 29.88 s  ClockTime = 30 s

forceCoeffs forceCoeffs write:
    Coefficient	Total	Pressure	Viscous	Internal
    Cd:	0.906199	0.893664	0.0125354	0
    Cd(f):	0.437437	0.43128	0.00615711	0
    Cd(r):	0.468762	0.462384	0.00637826	0
    Cl:	0.0313253	0.0311041	0.000221148	0
    Cl(f):	0.01573	0.0155521	0.000177926	0
    Cl(r):	0.0155953	0.0155521	4.32218e-05	0
    CmPitch:	6.7352e-05	2.07607e-13	6.7352e-05	0
    CmRoll:	-0.0156626	-0.0155521	-0.000110574	0
    CmYaw:	0.4531	0.446832	0.00626768	0
    Cs:	-1.63608e-20	-1.67133e-20	3.52477e-22	0
    Cs(f):	0.4531	0.446832	0.00626768	0
    Cs(r):	-0.4531	-0.446832	-0.00626768	0

    writing force and moment coefficient files.

Time = 36

smoothSolver:  Solving for Ux, Initial residual = 0.0156708, Final residual = 7.60632e-13, No Iterations 71
smoothSolver:  Solving for Uy, Initial residual = 0.0256928, Final residual = 8.64798e-13, No Iterations 73
GAMG:  Solving for p, Initial residual = 0.0158594, Final residual = 8.42012e-13, No Iterations 40
time step continuity errors : sum local = 4.09128e-13, global = 1.32479e-14, cumulative = 2.10936e-13
smoothSolver:  Solving for epsilon, Initial residual = 0.00866952, Final residual = 8.43713e-13, No Iterations 53
smoothSolver:  Solving for k, Initial residual = 0.0143701, Final residual = 9.57114e-13, No Iterations 61
ExecutionTime = 30.57 s  ClockTime = 31 s

forceCoeffs forceCoeffs write:
    Coefficient	Total	Pressure	Viscous	Internal
    Cd:	0.898759	0.886116	0.0126427	0
    Cd(f):	0.43677	0.430554	0.00621603	0
    Cd(r):	0.461988	0.455562	0.00642667	0
    Cl:	0.0252181	0.0250075	0.00021064	0
    Cl(f):	0.0126673	0.0125037	0.00016353	0
    Cl(r):	0.0125508	0.0125037	4.71102e-05	0
    CmPitch:	5.82099e-05	2.90041e-13	5.82099e-05	0
    CmRoll:	-0.0126091	-0.0125037	-0.00010532	0
    CmYaw:	0.449379	0.443058	0.00632135	0
    Cs:	-1.59885e-20	-1.63327e-20	3.44174e-22	0
    Cs(f):	0.449379	0.443058	0.00632135	0
    Cs(r):	-0.449379	-0.443058	-0.00632135	0

    writing force and moment coefficient files.

Time = 37

smoothSolver:  Solving for Ux, Initial residual = 0.0153324, Final residual = 7.42981e-13, No Iterations 71
smoothSolver:  Solving for Uy, Initial residual = 0.0251252, Final residual = 8.76593e-13, No Iterations 73
GAMG:  Solving for p, Initial residual = 0.0158886, Final residual = 9.39847e-13, No Iterations 40
time step continuity errors : sum local = 4.35111e-13, global = 1.46747e-14, cumulative = 2.25611e-13
smoothSolver:  Solving for epsilon, Initial residual = 0.00809481, Final residual = 9.55875e-13, No Iterations 53
smoothSolver:  Solving for k, Initial residual = 0.0136028, Final residual = 7.36258e-13, No Iterations 62
ExecutionTime = 31.28 s  ClockTime = 31 s

forceCoeffs forceCoeffs write:
    Coefficient	Total	Pressure	Viscous	Internal
    Cd:	0.890319	0.877583	0.0127358	0
    Cd(f):	0.435682	0.429412	0.0062696	0
    Cd(r):	0.454637	0.448171	0.00646621	0
    Cl:	0.0189552	0.0187586	0.000196604	0
    Cl(f):	0.00952337	0.00937932	0.000144052	0
    Cl(r):	0.00943187	0.00937932	5.25521e-05	0
    CmPitch:	4.57501e-05	3.4299e-13	4.57501e-05	0
    CmRoll:	-0.00947762	-0.00937932	-9.83022e-05	0
    CmYaw:	0.445159	0.438791	0.00636791	0
    Cs:	-1.5663e-20	-1.60039e-20	3.40896e-22	0
    Cs(f):	0.445159	0.438791	0.00636791	0
    Cs(r):	-0.445159	-0.438791	-0.00636791	0

    writing force and moment coefficient files.

Time = 38

smoothSolver:  Solving for Ux, Initial residual = 0.0150008, Final residual = 7.24705e-13, No Iterations 71
smoothSolver:  Solving for Uy, Initial residual = 0.0245666, Final residual = 8.8532e-13, No Iterations 73
GAMG:  Solving for p, Initial residual = 0.0158841, Final residual = 6.35191e-13, No Iterations 41
time step continuity errors : sum local = 2.80735e-13, global = 9.89058e-15, cumulative = 2.35501e-13
smoothSolver:  Solving for epsilon, Initial residual = 0.00762803, Final residual = 7.48534e-13, No Iterations 54
smoothSolver:  Solving for k, Initial residual = 0.0128959, Final residual = 8.19842e-13, No Iterations 62
ExecutionTime = 31.99 s  ClockTime = 32 s

forceCoeffs forceCoeffs write:
    Coefficient	Total	Pressure	Viscous	Internal
    Cd:	0.881278	0.868459	0.0128187	0
    Cd(f):	0.434309	0.42799	0.00631925	0
    Cd(r):	0.446969	0.440469	0.00649944	0
    Cl:	0.0126595	0.0124793	0.000180193	0
    Cl(f):	0.0063648	0.00623964	0.00012516	0
    Cl(r):	0.00629467	0.00623964	5.50332e-05	0
    CmPitch:	3.50635e-05	3.86222e-13	3.50635e-05	0
    CmRoll:	-0.00632974	-0.00623964	-9.00967e-05	0
    CmYaw:	0.440639	0.43423	0.00640935	0
    Cs:	-1.53815e-20	-1.57198e-20	3.38285e-22	0
    Cs(f):	0.440639	0.43423	0.00640935	0
    Cs(r):	-0.440639	-0.43423	-0.00640935	0

    writing force and moment coefficient files.

Time = 39

smoothSolver:  Solving for Ux, Initial residual = 0.014665, Final residual = 9.7594e-13, No Iterations 70
smoothSolver:  Solving for Uy, Initial residual = 0.0240239, Final residual = 8.89004e-13, No Iterations 73
GAMG:  Solving for p, Initial residual = 0.0158487, Final residual = 6.60839e-13, No Iterations 41
time step continuity errors : sum local = 2.79178e-13, global = 9.47056e-15, cumulative = 2.44972e-13
smoothSolver:  Solving for epsilon, Initial residual = 0.00719172, Final residual = 8.37703e-13, No Iterations 54
smoothSolver:  Solving for k, Initial residual = 0.0121945, Final residual = 7.21662e-13, No Iterations 63
ExecutionTime = 32.68 s  ClockTime = 33 s

forceCoeffs forceCoeffs write:
    Coefficient	Total	Pressure	Viscous	Internal
    Cd:	0.871994	0.8591	0.0128941	0
    Cd(f):	0.432764	0.426398	0.00636592	0
    Cd(r):	0.43923	0.432702	0.00652814	0
    Cl:	0.00646576	0.00630354	0.000162217	0
    Cl(f):	0.00325791	0.00315177	0.000106137	0
    Cl(r):	0.00320785	0.00315177	5.608e-05	0
    CmPitch:	2.50284e-05	4.21874e-13	2.50284e-05	0
    CmRoll:	-0.00323288	-0.00315177	-8.11083e-05	0
    CmYaw:	0.435997	0.42955	0.00644703	0
    Cs:	-1.51465e-20	-1.5477e-20	3.30513e-22	0
    Cs(f):	0.435997	0.42955	0.00644703	0
    Cs(r):	-0.435997	-0.42955	-0.00644703	0

    writing force and moment coefficient files.

Time = 40

smoothSolver:  Solving for Ux, Initial residual = 0.0143287, Final residual = 9.5097e-13, No Iterations 70
smoothSolver:  Solving for Uy, Initial residual = 0.0235138, Final residual = 8.91753e-13, No Iterations 73
GAMG:  Solving for p, Initial residual = 0.0157811, Final residual = 6.78022e-13, No Iterations 41
time step continuity errors : sum local = 2.74202e-13, global = 9.00344e-15, cumulative = 2.53975e-13
smoothSolver:  Solving for epsilon, Initial residual = 0.00677058, Final residual = 6.91866e-13, No Iterations 55
smoothSolver:  Solving for k, Initial residual = 0.0115923, Final residual = 7.73138e-13, No Iterations 63
ExecutionTime = 33.4 s  ClockTime = 33 s

forceCoeffs forceCoeffs write:
    Coefficient	Total	Pressure	Viscous	Internal
    Cd:	0.862788	0.849826	0.0129616	0
    Cd(f):	0.431176	0.424766	0.00640991	0
    Cd(r):	0.431612	0.42506	0.00655165	0
    Cl:	0.000435643	0.000293901	0.000141742	0
    Cl(f):	0.000233986	0.000146951	8.70354e-05	0
    Cl(r):	0.000201657	0.000146951	5.47062e-05	0
    CmPitch:	1.61646e-05	4.505e-13	1.61646e-05	0
    CmRoll:	-0.000217821	-0.000146951	-7.08708e-05	0
    CmYaw:	0.431394	0.424913	0.00648078	0
    Cs:	-1.49457e-20	-1.52708e-20	3.25131e-22	0
    Cs(f):	0.431394	0.424913	0.00648078	0
    Cs(r):	-0.431394	-0.424913	-0.00648078	0

    writing force and moment coefficient files.

Time = 41

smoothSolver:  Solving for Ux, Initial residual = 0.0140022, Final residual = 9.27015e-13, No Iterations 70
smoothSolver:  Solving for Uy, Initial residual = 0.0230286, Final residual = 8.91765e-13, No Iterations 73
GAMG:  Solving for p, Initial residual = 0.0156835, Final residual = 6.68722e-13, No Iterations 41
time step continuity errors : sum local = 2.5904e-13, global = 8.13731e-15, cumulative = 2.62113e-13
smoothSolver:  Solving for epsilon, Initial residual = 0.00638125, Final residual = 8.23005e-13, No Iterations 55
smoothSolver:  Solving for k, Initial residual = 0.0110065, Final residual = 8.66082e-13, No Iterations 63
ExecutionTime = 34.11 s  ClockTime = 34 s

forceCoeffs forceCoeffs write:
    Coefficient	Total	Pressure	Viscous	Internal
    Cd:	0.854022	0.840998	0.0130243	0
    Cd(f):	0.429675	0.423223	0.00645218	0
    Cd(r):	0.424347	0.417775	0.00657215	0
    Cl:	-0.00532789	-0.00544787	0.000119974	0
    Cl(f):	-0.00265561	-0.00272393	6.83282e-05	0
    Cl(r):	-0.00267229	-0.00272393	5.16455e-05	0
    CmPitch:	8.34135e-06	4.69931e-13	8.34135e-06	0
    CmRoll:	0.00266395	0.00272393	-5.99869e-05	0
    CmYaw:	0.427011	0.420499	0.00651217	0
    Cs:	-1.47789e-20	-1.50981e-20	3.19192e-22	0
    Cs(f):	0.427011	0.420499	0.00651217	0
    Cs(r):	-0.427011	-0.420499	-0.00651217	0

    writing force and moment coefficient files.

Time = 42

smoothSolver:  Solving for Ux, Initial residual = 0.0136818, Final residual = 9.04975e-13, No Iterations 70
smoothSolver:  Solving for Uy, Initial residual = 0.0225313, Final residual = 8.89266e-13, No Iterations 73
GAMG:  Solving for p, Initial residual = 0.0155634, Final residual = 6.40262e-13, No Iterations 41
time step continuity errors : sum local = 2.3789e-13, global = 7.15275e-15, cumulative = 2.69265e-13
smoothSolver:  Solving for epsilon, Initial residual = 0.0060467, Final residual = 9.99363e-13, No Iterations 55
smoothSolver:  Solving for k, Initial residual = 0.0104367, Final residual = 9.36052e-13, No Iterations 63
ExecutionTime = 34.8 s  ClockTime = 35 s

forceCoeffs forceCoeffs write:
    Coefficient	Total	Pressure	Viscous	Internal
    Cd:	0.845792	0.832709	0.0130826	0
    Cd(f):	0.428333	0.42184	0.00649265	0
    Cd(r):	0.417459	0.410869	0.00658994	0
    Cl:	-0.010874	-0.0109712	9.72955e-05	0
    Cl(f):	-0.0054351	-0.00548562	5.05242e-05	0
    Cl(r):	-0.00543885	-0.00548562	4.67713e-05	0
    CmPitch:	1.87649e-06	4.72911e-13	1.87649e-06	0
    CmRoll:	0.00543698	0.00548562	-4.86478e-05	0
    CmYaw:	0.422896	0.416354	0.00654129	0
    Cs:	-1.4639e-20	-1.49558e-20	3.16762e-22	0
    Cs(f):	0.422896	0.416354	0.00654129	0
    Cs(r):	-0.422896	-0.416354	-0.00654129	0

    writing force and moment coefficient files.

Time = 43

smoothSolver:  Solving for Ux, Initial residual = 0.0133678, Final residual = 8.85759e-13, No Iterations 70
smoothSolver:  Solving for Uy, Initial residual = 0.0220557, Final residual = 8.85956e-13, No Iterations 73
GAMG:  Solving for p, Initial residual = 0.015441, Final residual = 9.20981e-13, No Iterations 40
time step continuity errors : sum local = 3.28369e-13, global = 1.28855e-14, cumulative = 2.82151e-13
smoothSolver:  Solving for epsilon, Initial residual = 0.00569223, Final residual = 8.38309e-13, No Iterations 56
smoothSolver:  Solving for k, Initial residual = 0.00988113, Final residual = 7.45856e-13, No Iterations 64
ExecutionTime = 35.53 s  ClockTime = 36 s

forceCoeffs forceCoeffs write:
    Coefficient	Total	Pressure	Viscous	Internal
    Cd:	0.83817	0.825033	0.0131368	0
    Cd(f):	0.427156	0.420624	0.00653185	0
    Cd(r):	0.411014	0.404409	0.00660495	0
    Cl:	-0.016142	-0.0162151	7.31074e-05	0
    Cl(f):	-0.00807485	-0.00810757	3.27204e-05	0
    Cl(r):	-0.00806719	-0.00810757	4.0387e-05	0
    CmPitch:	-3.8333e-06	4.62032e-13	-3.8333e-06	0
    CmRoll:	0.00807102	0.00810757	-3.65537e-05	0
    CmYaw:	0.419085	0.412516	0.0065684	0
    Cs:	-1.45191e-20	-1.48359e-20	3.16804e-22	0
    Cs(f):	0.419085	0.412516	0.0065684	0
    Cs(r):	-0.419085	-0.412516	-0.0065684	0

    writing force and moment coefficient files.

Time = 44

smoothSolver:  Solving for Ux, Initial residual = 0.0130646, Final residual = 8.70011e-13, No Iterations 70
smoothSolver:  Solving for Uy, Initial residual = 0.0215763, Final residual = 8.8282e-13, No Iterations 73
GAMG:  Solving for p, Initial residual = 0.0153183, Final residual = 8.0709e-13, No Iterations 40
time step continuity errors : sum local = 2.76326e-13, global = 1.12158e-14, cumulative = 2.93367e-13
smoothSolver:  Solving for epsilon, Initial residual = 0.00537529, Final residual = 7.30916e-13, No Iterations 57
smoothSolver:  Solving for k, Initial residual = 0.00936847, Final residual = 8.23466e-13, No Iterations 64
ExecutionTime = 36.22 s  ClockTime = 36 s

forceCoeffs forceCoeffs write:
    Coefficient	Total	Pressure	Viscous	Internal
    Cd:	0.831162	0.817976	0.0131867	0
    Cd(f):	0.426162	0.419592	0.0065695	0
    Cd(r):	0.405001	0.398383	0.00661721	0
    Cl:	-0.0211612	-0.0212089	4.77132e-05	0
    Cl(f):	-0.010589	-0.0106045	1.54361e-05	0
    Cl(r):	-0.0105722	-0.0106045	3.22772e-05	0
    CmPitch:	-8.42054e-06	4.39525e-13	-8.42054e-06	0
    CmRoll:	0.0105806	0.0106045	-2.38566e-05	0
    CmYaw:	0.415581	0.408988	0.00659336	0
    Cs:	-1.44212e-20	-1.47359e-20	3.14671e-22	0
    Cs(f):	0.415581	0.408988	0.00659336	0
    Cs(r):	-0.415581	-0.408988	-0.00659336	0

    writing force and moment coefficient files.

Time = 45

smoothSolver:  Solving for Ux, Initial residual = 0.0127695, Final residual = 8.57678e-13, No Iterations 70
smoothSolver:  Solving for Uy, Initial residual = 0.0211082, Final residual = 8.80687e-13, No Iterations 73
GAMG:  Solving for p, Initial residual = 0.0152078, Final residual = 6.67991e-13, No Iterations 40
time step continuity errors : sum local = 2.19768e-13, global = 9.4501e-15, cumulative = 3.02817e-13
smoothSolver:  Solving for epsilon, Initial residual = 0.00508508, Final residual = 8.97096e-13, No Iterations 57
smoothSolver:  Solving for k, Initial residual = 0.00889058, Final residual = 9.3423e-13, No Iterations 64
ExecutionTime = 36.93 s  ClockTime = 37 s

forceCoeffs forceCoeffs write:
    Coefficient	Total	Pressure	Viscous	Internal
    Cd:	0.824699	0.811466	0.0132332	0
    Cd(f):	0.425249	0.418643	0.00660556	0
    Cd(r):	0.399451	0.392823	0.00662766	0
    Cl:	-0.0257982	-0.0258203	2.20952e-05	0
    Cl(f):	-0.0129118	-0.0129101	-1.61214e-06	0
    Cl(r):	-0.0128864	-0.0129101	2.37074e-05	0
    CmPitch:	-1.26598e-05	4.05698e-13	-1.26598e-05	0
    CmRoll:	0.0128991	0.0129101	-1.10476e-05	0
    CmYaw:	0.41235	0.405733	0.00661661	0
    Cs:	-1.43286e-20	-1.4646e-20	3.17392e-22	0
    Cs(f):	0.41235	0.405733	0.00661661	0
    Cs(r):	-0.41235	-0.405733	-0.00661661	0

    writing force and moment coefficient files.

Time = 46

smoothSolver:  Solving for Ux, Initial residual = 0.0124839, Final residual = 8.48018e-13, No Iterations 70
smoothSolver:  Solving for Uy, Initial residual = 0.0206532, Final residual = 8.7913e-13, No Iterations 73
GAMG:  Solving for p, Initial residual = 0.0151089, Final residual = 5.70716e-13, No Iterations 40
time step continuity errors : sum local = 1.80443e-13, global = 8.18194e-15, cumulative = 3.10999e-13
smoothSolver:  Solving for epsilon, Initial residual = 0.00478128, Final residual = 7.66098e-13, No Iterations 58
smoothSolver:  Solving for k, Initial residual = 0.00841616, Final residual = 9.91458e-13, No Iterations 64
ExecutionTime = 37.66 s  ClockTime = 38 s

forceCoeffs forceCoeffs write:
    Coefficient	Total	Pressure	Viscous	Internal
    Cd:	0.818692	0.805416	0.0132758	0
    Cd(f):	0.424389	0.417749	0.00663956	0
    Cd(r):	0.394303	0.387666	0.00663624	0
    Cl:	-0.0300863	-0.030083	-3.31681e-06	0
    Cl(f):	-0.0150593	-0.0150415	-1.78321e-05	0
    Cl(r):	-0.015027	-0.0150415	1.45153e-05	0
    CmPitch:	-1.61737e-05	3.60472e-13	-1.61737e-05	0
    CmRoll:	0.0150432	0.0150415	1.65841e-06	0
    CmYaw:	0.409346	0.402708	0.0066379	0
    Cs:	-1.42418e-20	-1.45635e-20	3.21759e-22	0
    Cs(f):	0.409346	0.402708	0.0066379	0
    Cs(r):	-0.409346	-0.402708	-0.0066379	0

    writing force and moment coefficient files.

Time = 47

smoothSolver:  Solving for Ux, Initial residual = 0.012198, Final residual = 8.41941e-13, No Iterations 70
smoothSolver:  Solving for Uy, Initial residual = 0.0202075, Final residual = 8.79885e-13, No Iterations 73
GAMG:  Solving for p, Initial residual = 0.0150353, Final residual = 8.71997e-13, No Iterations 39
time step continuity errors : sum local = 2.6492e-13, global = 3.87728e-15, cumulative = 3.14876e-13
smoothSolver:  Solving for epsilon, Initial residual = 0.0045524, Final residual = 9.36815e-13, No Iterations 58
smoothSolver:  Solving for k, Initial residual = 0.00798886, Final residual = 7.81391e-13, No Iterations 65
ExecutionTime = 38.36 s  ClockTime = 38 s

forceCoeffs forceCoeffs write:
    Coefficient	Total	Pressure	Viscous	Internal
    Cd:	0.813039	0.799723	0.0133154	0
    Cd(f):	0.423517	0.416845	0.00667178	0
    Cd(r):	0.389522	0.382878	0.00664359	0
    Cl:	-0.0339955	-0.0339673	-2.81871e-05	0
    Cl(f):	-0.0170171	-0.0169836	-3.34222e-05	0
    Cl(r):	-0.0169784	-0.0169836	5.23508e-06	0
    CmPitch:	-1.93287e-05	3.06311e-13	-1.93287e-05	0
    CmRoll:	0.0169977	0.0169836	1.40936e-05	0
    CmYaw:	0.406519	0.399862	0.00665768	0
    Cs:	-1.41454e-20	-1.44807e-20	3.35365e-22	0
    Cs(f):	0.406519	0.399862	0.00665768	0
    Cs(r):	-0.406519	-0.399862	-0.00665768	0

    writing force and moment coefficient files.

Time = 48

smoothSolver:  Solving for Ux, Initial residual = 0.0119217, Final residual = 8.38865e-13, No Iterations 70
smoothSolver:  Solving for Uy, Initial residual = 0.019763, Final residual = 8.82875e-13, No Iterations 73
GAMG:  Solving for p, Initial residual = 0.0149851, Final residual = 7.30269e-13, No Iterations 39
time step continuity errors : sum local = 2.1315e-13, global = 2.51887e-15, cumulative = 3.17395e-13
smoothSolver:  Solving for epsilon, Initial residual = 0.00432574, Final residual = 7.56936e-13, No Iterations 59
smoothSolver:  Solving for k, Initial residual = 0.0075805, Final residual = 8.4374e-13, No Iterations 65
ExecutionTime = 39.05 s  ClockTime = 39 s

forceCoeffs forceCoeffs write:
    Coefficient	Total	Pressure	Viscous	Internal
    Cd:	0.807629	0.794276	0.0133521	0
    Cd(f):	0.422562	0.415859	0.00670222	0
    Cd(r):	0.385067	0.378417	0.00664984	0
    Cl:	-0.0374948	-0.0374424	-5.23795e-05	0
    Cl(f):	-0.0187698	-0.0187212	-4.86097e-05	0
    Cl(r):	-0.018725	-0.0187212	-3.76975e-06	0
    CmPitch:	-2.242e-05	2.46937e-13	-2.242e-05	0
    CmRoll:	0.0187474	0.0187212	2.61897e-05	0
    CmYaw:	0.403814	0.397138	0.00667603	0
    Cs:	-1.40321e-20	-1.43935e-20	3.61418e-22	0
    Cs(f):	0.403814	0.397138	0.00667603	0
    Cs(r):	-0.403814	-0.397138	-0.00667603	0

    writing force and moment coefficient files.

Time = 49

smoothSolver:  Solving for Ux, Initial residual = 0.0116506, Final residual = 8.3954e-13, No Iterations 70
smoothSolver:  Solving for Uy, Initial residual = 0.0193407, Final residual = 8.88376e-13, No Iterations 73
GAMG:  Solving for p, Initial residual = 0.0149691, Final residual = 8.76445e-13, No Iterations 38
time step continuity errors : sum local = 2.45727e-13, global = 1.31584e-14, cumulative = 3.30553e-13
smoothSolver:  Solving for epsilon, Initial residual = 0.00411503, Final residual = 8.62587e-13, No Iterations 59
smoothSolver:  Solving for k, Initial residual = 0.00720064, Final residual = 9.07057e-13, No Iterations 65
ExecutionTime = 39.77 s  ClockTime = 40 s

forceCoeffs forceCoeffs write:
    Coefficient	Total	Pressure	Viscous	Internal
    Cd:	0.802396	0.789009	0.0133867	0
    Cd(f):	0.421534	0.414803	0.00673113	0
    Cd(r):	0.380862	0.374206	0.00665561	0
    Cl:	-0.0406724	-0.0405968	-7.55231e-05	0
    Cl(f):	-0.0203617	-0.0202984	-6.33221e-05	0
    Cl(r):	-0.0203106	-0.0202984	-1.22011e-05	0
    CmPitch:	-2.55605e-05	1.87837e-13	-2.55605e-05	0
    CmRoll:	0.0203362	0.0202984	3.77616e-05	0
    CmYaw:	0.401198	0.394504	0.00669337	0
    Cs:	-1.39155e-20	-1.43013e-20	3.85777e-22	0
    Cs(f):	0.401198	0.394504	0.00669337	0
    Cs(r):	-0.401198	-0.394504	-0.00669337	0

    writing force and moment coefficient files.

Time = 50

smoothSolver:  Solving for Ux, Initial residual = 0.0113848, Final residual = 8.43809e-13, No Iterations 70
smoothSolver:  Solving for Uy, Initial residual = 0.0189316, Final residual = 8.95686e-13, No Iterations 73
GAMG:  Solving for p, Initial residual = 0.0149633, Final residual = 7.61698e-13, No Iterations 38
time step continuity errors : sum local = 2.05168e-13, global = 1.15027e-14, cumulative = 3.42056e-13
smoothSolver:  Solving for epsilon, Initial residual = 0.00391837, Final residual = 9.74761e-13, No Iterations 59
smoothSolver:  Solving for k, Initial residual = 0.00681407, Final residual = 9.61608e-13, No Iterations 65
ExecutionTime = 40.48 s  ClockTime = 41 s

forceCoeffs forceCoeffs write:
    Coefficient	Total	Pressure	Viscous	Internal
    Cd:	0.797258	0.783838	0.0134193	0
    Cd(f):	0.420339	0.413581	0.00675815	0
    Cd(r):	0.376918	0.370257	0.00666113	0
    Cl:	-0.0434207	-0.0433236	-9.70166e-05	0
    Cl(f):	-0.0217386	-0.0216618	-7.68203e-05	0
    Cl(r):	-0.021682	-0.0216618	-2.01963e-05	0
    CmPitch:	-2.8312e-05	1.23901e-13	-2.8312e-05	0
    CmRoll:	0.0217103	0.0216618	4.85083e-05	0
    CmYaw:	0.398629	0.391919	0.00670964	0
    Cs:	-1.37926e-20	-1.41996e-20	4.07038e-22	0
    Cs(f):	0.398629	0.391919	0.00670964	0
    Cs(r):	-0.398629	-0.391919	-0.00670964	0

    writing force and moment coefficient files.

Time = 51

smoothSolver:  Solving for Ux, Initial residual = 0.0111236, Final residual = 8.50699e-13, No Iterations 70
smoothSolver:  Solving for Uy, Initial residual = 0.0185429, Final residual = 9.03204e-13, No Iterations 73
GAMG:  Solving for p, Initial residual = 0.0149719, Final residual = 7.47389e-13, No Iterations 38
time step continuity errors : sum local = 1.93406e-13, global = 1.11658e-14, cumulative = 3.53222e-13
smoothSolver:  Solving for epsilon, Initial residual = 0.00372258, Final residual = 7.62111e-13, No Iterations 60
smoothSolver:  Solving for k, Initial residual = 0.00648761, Final residual = 7.47482e-13, No Iterations 66
ExecutionTime = 41.18 s  ClockTime = 41 s

forceCoeffs forceCoeffs write:
    Coefficient	Total	Pressure	Viscous	Internal
    Cd:	0.792178	0.778727	0.0134506	0
    Cd(f):	0.419007	0.412223	0.00678399	0
    Cd(r):	0.373171	0.366504	0.00666664	0
    Cl:	-0.0458362	-0.0457189	-0.000117346	0
    Cl(f):	-0.0229491	-0.0228595	-8.96891e-05	0
    Cl(r):	-0.0228871	-0.0228595	-2.7657e-05	0
    CmPitch:	-3.1016e-05	6.26812e-14	-3.1016e-05	0
    CmRoll:	0.0229181	0.0228595	5.8673e-05	0
    CmYaw:	0.396089	0.389364	0.00672531	0
    Cs:	-1.36633e-20	-1.40884e-20	4.25168e-22	0
    Cs(f):	0.396089	0.389364	0.00672531	0
    Cs(r):	-0.396089	-0.389364	-0.00672531	0

    writing force and moment coefficient files.

Time = 52

smoothSolver:  Solving for Ux, Initial residual = 0.010867, Final residual = 8.61306e-13, No Iterations 70
smoothSolver:  Solving for Uy, Initial residual = 0.0181642, Final residual = 9.11192e-13, No Iterations 73
GAMG:  Solving for p, Initial residual = 0.0149758, Final residual = 8.1233e-13, No Iterations 38
time step continuity errors : sum local = 2.01865e-13, global = 1.20308e-14, cumulative = 3.65252e-13
smoothSolver:  Solving for epsilon, Initial residual = 0.00357301, Final residual = 8.21135e-13, No Iterations 60
smoothSolver:  Solving for k, Initial residual = 0.00617493, Final residual = 7.94626e-13, No Iterations 66
ExecutionTime = 41.89 s  ClockTime = 42 s

forceCoeffs forceCoeffs write:
    Coefficient	Total	Pressure	Viscous	Internal
    Cd:	0.787063	0.773582	0.0134804	0
    Cd(f):	0.417485	0.410677	0.00680821	0
    Cd(r):	0.369578	0.362906	0.00667224	0
    Cl:	-0.0479072	-0.0477713	-0.000135967	0
    Cl(f):	-0.0239869	-0.0238856	-0.000101275	0
    Cl(r):	-0.0239203	-0.0238856	-3.46913e-05	0
    CmPitch:	-3.3292e-05	5.4028e-15	-3.3292e-05	0
    CmRoll:	0.0239536	0.0238856	6.79833e-05	0
    CmYaw:	0.393531	0.386791	0.00674022	0
    Cs:	-1.35259e-20	-1.39668e-20	4.40907e-22	0
    Cs(f):	0.393531	0.386791	0.00674022	0
    Cs(r):	-0.393531	-0.386791	-0.00674022	0

    writing force and moment coefficient files.

Time = 53

smoothSolver:  Solving for Ux, Initial residual = 0.010616, Final residual = 8.75485e-13, No Iterations 70
smoothSolver:  Solving for Uy, Initial residual = 0.0177921, Final residual = 9.19524e-13, No Iterations 73
GAMG:  Solving for p, Initial residual = 0.0150009, Final residual = 9.43242e-13, No Iterations 38
time step continuity errors : sum local = 2.25137e-13, global = 1.37308e-14, cumulative = 3.78983e-13
smoothSolver:  Solving for epsilon, Initial residual = 0.00341154, Final residual = 8.85222e-13, No Iterations 60
smoothSolver:  Solving for k, Initial residual = 0.00586019, Final residual = 8.35141e-13, No Iterations 66
ExecutionTime = 42.57 s  ClockTime = 43 s

forceCoeffs forceCoeffs write:
    Coefficient	Total	Pressure	Viscous	Internal
    Cd:	0.78194	0.768431	0.0135081	0
    Cd(f):	0.415789	0.408958	0.00683053	0
    Cd(r):	0.366151	0.359473	0.00667759	0
    Cl:	-0.0496375	-0.0494846	-0.000152941	0
    Cl(f):	-0.0248543	-0.0247423	-0.00011197	0
    Cl(r):	-0.0247833	-0.0247423	-4.09709e-05	0
    CmPitch:	-3.54994e-05	-4.58227e-14	-3.54994e-05	0
    CmRoll:	0.0248188	0.0247423	7.64703e-05	0
    CmYaw:	0.39097	0.384216	0.00675406	0
    Cs:	-1.33797e-20	-1.38353e-20	4.55645e-22	0
    Cs(f):	0.39097	0.384216	0.00675406	0
    Cs(r):	-0.39097	-0.384216	-0.00675406	0

    writing force and moment coefficient files.

Time = 54

smoothSolver:  Solving for Ux, Initial residual = 0.0103752, Final residual = 8.92075e-13, No Iterations 70
smoothSolver:  Solving for Uy, Initial residual = 0.0174441, Final residual = 9.27695e-13, No Iterations 73
GAMG:  Solving for p, Initial residual = 0.0150311, Final residual = 8.35563e-13, No Iterations 39
time step continuity errors : sum local = 1.91516e-13, global = 3.2658e-15, cumulative = 3.82249e-13
smoothSolver:  Solving for epsilon, Initial residual = 0.00326212, Final residual = 9.35269e-13, No Iterations 60
smoothSolver:  Solving for k, Initial residual = 0.00559543, Final residual = 8.8163e-13, No Iterations 66
ExecutionTime = 43.27 s  ClockTime = 43 s

forceCoeffs forceCoeffs write:
    Coefficient	Total	Pressure	Viscous	Internal
    Cd:	0.776752	0.763219	0.0135334	0
    Cd(f):	0.413903	0.407052	0.00685082	0
    Cd(r):	0.362849	0.356167	0.00668255	0
    Cl:	-0.0510535	-0.0508852	-0.000168274	0
    Cl(f):	-0.025564	-0.0254426	-0.000121378	0
    Cl(r):	-0.0254895	-0.0254426	-4.68962e-05	0
    CmPitch:	-3.72407e-05	-9.23388e-14	-3.72407e-05	0
    CmRoll:	0.0255268	0.0254426	8.41369e-05	0
    CmYaw:	0.388376	0.381609	0.00676669	0
    Cs:	-1.32271e-20	-1.36968e-20	4.69702e-22	0
    Cs(f):	0.388376	0.381609	0.00676669	0
    Cs(r):	-0.388376	-0.381609	-0.00676669	0

    writing force and moment coefficient files.

Time = 55

smoothSolver:  Solving for Ux, Initial residual = 0.0101374, Final residual = 9.08935e-13, No Iterations 70
smoothSolver:  Solving for Uy, Initial residual = 0.0171198, Final residual = 9.33709e-13, No Iterations 73
GAMG:  Solving for p, Initial residual = 0.0150669, Final residual = 9.69771e-13, No Iterations 39
time step continuity errors : sum local = 2.13335e-13, global = 4.0134e-15, cumulative = 3.86262e-13
smoothSolver:  Solving for epsilon, Initial residual = 0.00310905, Final residual = 9.90242e-13, No Iterations 60
smoothSolver:  Solving for k, Initial residual = 0.00533909, Final residual = 9.15407e-13, No Iterations 66
ExecutionTime = 43.99 s  ClockTime = 44 s

forceCoeffs forceCoeffs write:
    Coefficient	Total	Pressure	Viscous	Internal
    Cd:	0.771526	0.75797	0.0135558	0
    Cd(f):	0.411868	0.404999	0.00686904	0
    Cd(r):	0.359658	0.352972	0.00668675	0
    Cl:	-0.0522093	-0.052027	-0.000182283	0
    Cl(f):	-0.0261435	-0.0260135	-0.000129981	0
    Cl(r):	-0.0260658	-0.0260135	-5.23022e-05	0
    CmPitch:	-3.88395e-05	-1.33113e-13	-3.88395e-05	0
    CmRoll:	0.0261047	0.0260135	9.11417e-05	0
    CmYaw:	0.385763	0.378985	0.0067779	0
    Cs:	-1.30707e-20	-1.35535e-20	4.82823e-22	0
    Cs(f):	0.385763	0.378985	0.0067779	0
    Cs(r):	-0.385763	-0.378985	-0.0067779	0

    writing force and moment coefficient files.

Time = 56

smoothSolver:  Solving for Ux, Initial residual = 0.00990743, Final residual = 9.26221e-13, No Iterations 70
smoothSolver:  Solving for Uy, Initial residual = 0.0168167, Final residual = 9.38409e-13, No Iterations 73
GAMG:  Solving for p, Initial residual = 0.0151267, Final residual = 5.56013e-13, No Iterations 40
time step continuity errors : sum local = 1.17508e-13, global = 6.9226e-15, cumulative = 3.93185e-13
smoothSolver:  Solving for epsilon, Initial residual = 0.00297867, Final residual = 7.47977e-13, No Iterations 61
smoothSolver:  Solving for k, Initial residual = 0.0051212, Final residual = 9.4333e-13, No Iterations 66
ExecutionTime = 44.69 s  ClockTime = 45 s

forceCoeffs forceCoeffs write:
    Coefficient	Total	Pressure	Viscous	Internal
    Cd:	0.766268	0.752692	0.0135753	0
    Cd(f):	0.409674	0.402789	0.00688489	0
    Cd(r):	0.356593	0.349903	0.00669041	0
    Cl:	-0.0530812	-0.0528867	-0.000194474	0
    Cl(f):	-0.0265803	-0.0264433	-0.000136919	0
    Cl(r):	-0.0265009	-0.0264433	-5.7555e-05	0
    CmPitch:	-3.96817e-05	-1.67626e-13	-3.96817e-05	0
    CmRoll:	0.0265406	0.0264433	9.72368e-05	0
    CmYaw:	0.383134	0.376346	0.00678765	0
    Cs:	-1.29113e-20	-1.34066e-20	4.95239e-22	0
    Cs(f):	0.383134	0.376346	0.00678765	0
    Cs(r):	-0.383134	-0.376346	-0.00678765	0

    writing force and moment coefficient files.

Time = 57

smoothSolver:  Solving for Ux, Initial residual = 0.00968196, Final residual = 9.43216e-13, No Iterations 70
smoothSolver:  Solving for Uy, Initial residual = 0.0165283, Final residual = 9.41206e-13, No Iterations 73
GAMG:  Solving for p, Initial residual = 0.0151893, Final residual = 6.15452e-13, No Iterations 40
time step continuity errors : sum local = 1.24798e-13, global = 7.26559e-15, cumulative = 4.00451e-13
smoothSolver:  Solving for epsilon, Initial residual = 0.00284338, Final residual = 7.90364e-13, No Iterations 61
smoothSolver:  Solving for k, Initial residual = 0.00488493, Final residual = 9.56152e-13, No Iterations 66
ExecutionTime = 45.39 s  ClockTime = 45 s

forceCoeffs forceCoeffs write:
    Coefficient	Total	Pressure	Viscous	Internal
    Cd:	0.761029	0.747437	0.0135922	0
    Cd(f):	0.407391	0.400492	0.00689888	0
    Cd(r):	0.353638	0.346945	0.00669337	0
    Cl:	-0.053753	-0.0535475	-0.000205505	0
    Cl(f):	-0.0269167	-0.0267737	-0.000142991	0
    Cl(r):	-0.0268363	-0.0267737	-6.25136e-05	0
    CmPitch:	-4.02388e-05	-1.9358e-13	-4.02388e-05	0
    CmRoll:	0.0268765	0.0267737	0.000102752	0
    CmYaw:	0.380515	0.373719	0.00679612	0
[...]
time step continuity errors : sum local = 1.79011e-13, global = 6.11418e-15, cumulative = 3.51549e-12
smoothSolver:  Solving for epsilon, Initial residual = 0.00793441, Final residual = 9.02568e-13, No Iterations 51
smoothSolver:  Solving for k, Initial residual = 0.00700362, Final residual = 9.35378e-13, No Iterations 57
ExecutionTime = 1394.43 s  ClockTime = 1395 s

forceCoeffs forceCoeffs write:
    Coefficient	Total	Pressure	Viscous	Internal
    Cd:	1.11065	1.09209	0.018567	0
    Cd(f):	0.835419	0.823051	0.0123674	0
    Cd(r):	0.275234	0.269034	0.00619958	0
    Cl:	-0.560185	-0.554017	-0.00616781	0
    Cl(f):	-0.280459	-0.277009	-0.00345023	0
    Cl(r):	-0.279726	-0.277009	-0.00271758	0
    CmPitch:	-0.000366325	-6.17622e-13	-0.000366325	0
    CmRoll:	0.280093	0.277009	0.0030839	0
    CmYaw:	0.555326	0.546043	0.00928348	0
    Cs:	-6.49648e-21	-6.42187e-21	-7.46156e-23	0
    Cs(f):	0.555326	0.546043	0.00928348	0
    Cs(r):	-0.555326	-0.546043	-0.00928348	0

    writing force and moment coefficient files.

Time = 1987

smoothSolver:  Solving for Ux, Initial residual = 0.0312678, Final residual = 9.66571e-13, No Iterations 75
smoothSolver:  Solving for Uy, Initial residual = 0.0373582, Final residual = 8.36094e-13, No Iterations 77
GAMG:  Solving for p, Initial residual = 0.0215027, Final residual = 8.93278e-13, No Iterations 42
time step continuity errors : sum local = 2.056e-13, global = 8.62789e-15, cumulative = 3.52412e-12
smoothSolver:  Solving for epsilon, Initial residual = 0.00810711, Final residual = 8.55918e-13, No Iterations 51
smoothSolver:  Solving for k, Initial residual = 0.00707818, Final residual = 9.42252e-13, No Iterations 57
ExecutionTime = 1395.09 s  ClockTime = 1396 s

forceCoeffs forceCoeffs write:
    Coefficient	Total	Pressure	Viscous	Internal
    Cd:	1.10083	1.08229	0.0185451	0
    Cd(f):	0.764713	0.752487	0.0122265	0
    Cd(r):	0.336119	0.3298	0.00631857	0
    Cl:	-0.428595	-0.422687	-0.00590792	0
    Cl(f):	-0.214561	-0.211343	-0.00321806	0
    Cl(r):	-0.214033	-0.211343	-0.00268986	0
    CmPitch:	-0.000264102	-1.18113e-12	-0.000264102	0
    CmRoll:	0.214297	0.211343	0.00295396	0
    CmYaw:	0.550416	0.541143	0.00927253	0
    Cs:	-3.24299e-21	-3.05672e-21	-1.86268e-22	0
    Cs(f):	0.550416	0.541143	0.00927253	0
    Cs(r):	-0.550416	-0.541143	-0.00927253	0

    writing force and moment coefficient files.

Time = 1988

smoothSolver:  Solving for Ux, Initial residual = 0.0314619, Final residual = 9.64191e-13, No Iterations 75
smoothSolver:  Solving for Uy, Initial residual = 0.0377011, Final residual = 8.31563e-13, No Iterations 77
GAMG:  Solving for p, Initial residual = 0.0216638, Final residual = 8.08411e-13, No Iterations 43
time step continuity errors : sum local = 1.86901e-13, global = 6.56404e-15, cumulative = 3.53068e-12
smoothSolver:  Solving for epsilon, Initial residual = 0.00813835, Final residual = 8.8903e-13, No Iterations 51
smoothSolver:  Solving for k, Initial residual = 0.00712187, Final residual = 9.5656e-13, No Iterations 57
ExecutionTime = 1395.85 s  ClockTime = 1396 s

forceCoeffs forceCoeffs write:
    Coefficient	Total	Pressure	Viscous	Internal
    Cd:	1.0945	1.07595	0.0185453	0
    Cd(f):	0.693766	0.68169	0.0120752	0
    Cd(r):	0.400732	0.394262	0.00647012	0
    Cl:	-0.293034	-0.287429	-0.00560508	0
    Cl(f):	-0.146676	-0.143714	-0.00296219	0
    Cl(r):	-0.146357	-0.143714	-0.00264289	0
    CmPitch:	-0.000159648	-1.48427e-12	-0.000159648	0
    CmRoll:	0.146517	0.143714	0.00280254	0
    CmYaw:	0.547249	0.537976	0.00927266	0
    Cs:	-7.90077e-23	2.34597e-22	-3.13604e-22	0
    Cs(f):	0.547249	0.537976	0.00927266	0
    Cs(r):	-0.547249	-0.537976	-0.00927266	0

    writing force and moment coefficient files.

Time = 1989

smoothSolver:  Solving for Ux, Initial residual = 0.0316447, Final residual = 9.61547e-13, No Iterations 75
smoothSolver:  Solving for Uy, Initial residual = 0.0380029, Final residual = 8.2035e-13, No Iterations 77
GAMG:  Solving for p, Initial residual = 0.0217697, Final residual = 7.92605e-13, No Iterations 44
time step continuity errors : sum local = 1.83913e-13, global = 7.60785e-15, cumulative = 3.53829e-12
smoothSolver:  Solving for epsilon, Initial residual = 0.00821493, Final residual = 8.68162e-13, No Iterations 51
smoothSolver:  Solving for k, Initial residual = 0.00716282, Final residual = 7.63542e-13, No Iterations 58
ExecutionTime = 1396.56 s  ClockTime = 1397 s

forceCoeffs forceCoeffs write:
    Coefficient	Total	Pressure	Viscous	Internal
    Cd:	1.0918	1.07323	0.018569	0
    Cd(f):	0.623543	0.611625	0.0119178	0
    Cd(r):	0.468255	0.461604	0.00665117	0
    Cl:	-0.155288	-0.150021	-0.00526667	0
    Cl(f):	-0.0776953	-0.0750107	-0.0026846	0
    Cl(r):	-0.0775928	-0.0750107	-0.00258208	0
    CmPitch:	-5.12593e-05	-1.56333e-12	-5.12593e-05	0
    CmRoll:	0.0776441	0.0750107	0.00263334	0
    CmYaw:	0.545899	0.536615	0.00928451	0
    Cs:	2.97673e-21	3.40214e-21	-4.25408e-22	0
    Cs(f):	0.545899	0.536615	0.00928451	0
    Cs(r):	-0.545899	-0.536615	-0.00928451	0

    writing force and moment coefficient files.

Time = 1990

smoothSolver:  Solving for Ux, Initial residual = 0.0317946, Final residual = 9.62052e-13, No Iterations 75
smoothSolver:  Solving for Uy, Initial residual = 0.0382425, Final residual = 8.08496e-13, No Iterations 77
GAMG:  Solving for p, Initial residual = 0.0219269, Final residual = 6.86508e-13, No Iterations 45
time step continuity errors : sum local = 1.59783e-13, global = 6.09977e-15, cumulative = 3.54439e-12
smoothSolver:  Solving for epsilon, Initial residual = 0.00829257, Final residual = 9.28388e-13, No Iterations 51
smoothSolver:  Solving for k, Initial residual = 0.00718845, Final residual = 8.32926e-13, No Iterations 58
ExecutionTime = 1397.24 s  ClockTime = 1398 s

forceCoeffs forceCoeffs write:
    Coefficient	Total	Pressure	Viscous	Internal
    Cd:	1.09232	1.07371	0.0186132	0
    Cd(f):	0.553934	0.542182	0.0117521	0
    Cd(r):	0.538388	0.531527	0.00686107	0
    Cl:	-0.015546	-0.010655	-0.00489104	0
    Cl(f):	-0.00771593	-0.00532749	-0.00238843	0
    Cl(r):	-0.0078301	-0.00532749	-0.00250261	0
    CmPitch:	5.70859e-05	-1.48404e-12	5.70859e-05	0
    CmRoll:	0.00777301	0.00532749	0.00244552	0
    CmYaw:	0.546161	0.536855	0.00930659	0
    Cs:	5.88393e-21	6.49559e-21	-6.11658e-22	0
    Cs(f):	0.546161	0.536855	0.00930659	0
    Cs(r):	-0.546161	-0.536855	-0.00930659	0

    writing force and moment coefficient files.

Time = 1991

smoothSolver:  Solving for Ux, Initial residual = 0.0319372, Final residual = 9.64325e-13, No Iterations 75
smoothSolver:  Solving for Uy, Initial residual = 0.0384244, Final residual = 7.97589e-13, No Iterations 77
GAMG:  Solving for p, Initial residual = 0.0221647, Final residual = 9.55771e-13, No Iterations 45
time step continuity errors : sum local = 2.22817e-13, global = 8.30652e-15, cumulative = 3.5527e-12
smoothSolver:  Solving for epsilon, Initial residual = 0.00827479, Final residual = 6.92454e-13, No Iterations 52
smoothSolver:  Solving for k, Initial residual = 0.00721377, Final residual = 9.8063e-13, No Iterations 58
ExecutionTime = 1397.94 s  ClockTime = 1398 s

forceCoeffs forceCoeffs write:
    Coefficient	Total	Pressure	Viscous	Internal
    Cd:	1.09546	1.07678	0.018681	0
    Cd(f):	0.485232	0.473652	0.0115799	0
    Cd(r):	0.610229	0.603128	0.00710104	0
    Cl:	0.124997	0.129476	-0.0044789	0
    Cl(f):	0.0626626	0.0647381	-0.00207552	0
    Cl(r):	0.0623347	0.0647381	-0.00240338	0
    CmPitch:	0.000163934	-1.34832e-12	0.000163934	0
    CmRoll:	-0.0624986	-0.0647381	0.00223945	0
    CmYaw:	0.547731	0.53839	0.00934049	0
    Cs:	8.71405e-21	9.54609e-21	-8.32039e-22	0
    Cs(f):	0.547731	0.53839	0.00934049	0
    Cs(r):	-0.547731	-0.53839	-0.00934049	0

    writing force and moment coefficient files.

Time = 1992

smoothSolver:  Solving for Ux, Initial residual = 0.0320544, Final residual = 9.66038e-13, No Iterations 75
smoothSolver:  Solving for Uy, Initial residual = 0.0385577, Final residual = 7.86372e-13, No Iterations 77
GAMG:  Solving for p, Initial residual = 0.0223589, Final residual = 7.28054e-13, No Iterations 46
time step continuity errors : sum local = 1.69951e-13, global = 5.89376e-15, cumulative = 3.55859e-12
smoothSolver:  Solving for epsilon, Initial residual = 0.00834934, Final residual = 6.63888e-13, No Iterations 52
smoothSolver:  Solving for k, Initial residual = 0.00722977, Final residual = 7.57446e-13, No Iterations 59
ExecutionTime = 1398.64 s  ClockTime = 1399 s

forceCoeffs forceCoeffs write:
    Coefficient	Total	Pressure	Viscous	Internal
    Cd:	1.1012	1.08243	0.0187715	0
    Cd(f):	0.418437	0.407035	0.0114025	0
    Cd(r):	0.682765	0.675396	0.00736902	0
    Cl:	0.264327	0.268361	-0.00403349	0
    Cl(f):	0.132432	0.13418	-0.0017479	0
    Cl(r):	0.131895	0.13418	-0.00228559	0
    CmPitch:	0.000268843	-1.18917e-12	0.000268843	0
    CmRoll:	-0.132164	-0.13418	0.00201675	0
    CmYaw:	0.550601	0.541215	0.00938576	0
    Cs:	1.17063e-20	1.25375e-20	-8.31156e-22	0
    Cs(f):	0.550601	0.541215	0.00938576	0
    Cs(r):	-0.550601	-0.541215	-0.00938576	0

    writing force and moment coefficient files.

Time = 1993

smoothSolver:  Solving for Ux, Initial residual = 0.0321546, Final residual = 9.63324e-13, No Iterations 75
smoothSolver:  Solving for Uy, Initial residual = 0.0386351, Final residual = 7.76476e-13, No Iterations 77
GAMG:  Solving for p, Initial residual = 0.0224723, Final residual = 9.62536e-13, No Iterations 45
time step continuity errors : sum local = 2.24672e-13, global = -9.3776e-15, cumulative = 3.54921e-12
smoothSolver:  Solving for epsilon, Initial residual = 0.0082713, Final residual = 9.67268e-13, No Iterations 51
smoothSolver:  Solving for k, Initial residual = 0.00722333, Final residual = 7.71417e-13, No Iterations 59
ExecutionTime = 1399.33 s  ClockTime = 1400 s

forceCoeffs forceCoeffs write:
    Coefficient	Total	Pressure	Viscous	Internal
    Cd:	1.10874	1.08987	0.0188747	0
    Cd(f):	0.353791	0.34258	0.0112117	0
    Cd(r):	0.754953	0.74729	0.00766298	0
    Cl:	0.401161	0.40471	-0.00354871	0
    Cl(f):	0.200946	0.202355	-0.00140911	0
    Cl(r):	0.200215	0.202355	-0.00213959	0
    CmPitch:	0.00036524	-1.01597e-12	0.00036524	0
    CmRoll:	-0.200581	-0.202355	0.00177435	0
    CmYaw:	0.554372	0.544935	0.00943733	0
    Cs:	1.44733e-20	1.54815e-20	-1.00824e-21	0
    Cs(f):	0.554372	0.544935	0.00943733	0
    Cs(r):	-0.554372	-0.544935	-0.00943733	0

    writing force and moment coefficient files.

Time = 1994

smoothSolver:  Solving for Ux, Initial residual = 0.0322465, Final residual = 9.57339e-13, No Iterations 75
smoothSolver:  Solving for Uy, Initial residual = 0.0386707, Final residual = 7.65748e-13, No Iterations 77
GAMG:  Solving for p, Initial residual = 0.0226083, Final residual = 6.68335e-13, No Iterations 45
time step continuity errors : sum local = 1.56053e-13, global = -7.15312e-15, cumulative = 3.54206e-12
smoothSolver:  Solving for epsilon, Initial residual = 0.00825048, Final residual = 9.48056e-13, No Iterations 51
smoothSolver:  Solving for k, Initial residual = 0.00720203, Final residual = 7.81488e-13, No Iterations 59
ExecutionTime = 1400.01 s  ClockTime = 1400 s

forceCoeffs forceCoeffs write:
    Coefficient	Total	Pressure	Viscous	Internal
    Cd:	1.11724	1.09825	0.0189901	0
    Cd(f):	0.291549	0.28054	0.0110085	0
    Cd(r):	0.825689	0.817708	0.00798156	0
    Cl:	0.53414	0.537167	-0.00302699	0
    Cl(f):	0.267521	0.268584	-0.00106243	0
    Cl(r):	0.266619	0.268584	-0.00196455	0
    CmPitch:	0.000451061	-8.91302e-13	0.000451061	0
    CmRoll:	-0.26707	-0.268584	0.00151349	0
    CmYaw:	0.558619	0.549124	0.00949505	0
    Cs:	1.73855e-20	1.83386e-20	-9.53105e-22	0
    Cs(f):	0.558619	0.549124	0.00949505	0
    Cs(r):	-0.558619	-0.549124	-0.00949505	0

    writing force and moment coefficient files.

Time = 1995

smoothSolver:  Solving for Ux, Initial residual = 0.0323288, Final residual = 9.50459e-13, No Iterations 75
smoothSolver:  Solving for Uy, Initial residual = 0.0386527, Final residual = 7.56113e-13, No Iterations 77
GAMG:  Solving for p, Initial residual = 0.0227732, Final residual = 6.84882e-13, No Iterations 45
time step continuity errors : sum local = 1.59781e-13, global = -7.5254e-15, cumulative = 3.53453e-12
smoothSolver:  Solving for epsilon, Initial residual = 0.00808327, Final residual = 8.25991e-13, No Iterations 51
smoothSolver:  Solving for k, Initial residual = 0.00717081, Final residual = 8.11478e-13, No Iterations 59
ExecutionTime = 1400.69 s  ClockTime = 1401 s

forceCoeffs forceCoeffs write:
    Coefficient	Total	Pressure	Viscous	Internal
    Cd:	1.12659	1.10748	0.0191129	0
    Cd(f):	0.232235	0.221439	0.0107964	0
    Cd(r):	0.894353	0.886036	0.00831652	0
    Cl:	0.662118	0.664598	-0.00247985	0
    Cl(f):	0.331588	0.332299	-0.000711183	0
    Cl(r):	0.33053	0.332299	-0.00176867	0
    CmPitch:	0.000528743	-8.49022e-13	0.000528743	0
    CmRoll:	-0.331059	-0.332299	0.00123993	0
    CmYaw:	0.563294	0.553738	0.00955644	0
    Cs:	2.04323e-20	2.10519e-20	-6.19601e-22	0
    Cs(f):	0.563294	0.553738	0.00955644	0
    Cs(r):	-0.563294	-0.553738	-0.00955644	0

    writing force and moment coefficient files.

Time = 1996

smoothSolver:  Solving for Ux, Initial residual = 0.0324126, Final residual = 9.45901e-13, No Iterations 75
smoothSolver:  Solving for Uy, Initial residual = 0.0385877, Final residual = 7.49717e-13, No Iterations 77
GAMG:  Solving for p, Initial residual = 0.0228358, Final residual = 7.09331e-13, No Iterations 45
time step continuity errors : sum local = 1.652e-13, global = -7.83856e-15, cumulative = 3.5267e-12
smoothSolver:  Solving for epsilon, Initial residual = 0.00798413, Final residual = 8.0195e-13, No Iterations 51
smoothSolver:  Solving for k, Initial residual = 0.00711236, Final residual = 8.37459e-13, No Iterations 59
ExecutionTime = 1401.36 s  ClockTime = 1402 s

forceCoeffs forceCoeffs write:
    Coefficient	Total	Pressure	Viscous	Internal
    Cd:	1.13667	1.11742	0.0192472	0
    Cd(f):	0.17628	0.165701	0.0105793	0
    Cd(r):	0.960387	0.951719	0.00866794	0
    Cl:	0.784107	0.786018	-0.00191134	0
    Cl(f):	0.392648	0.393009	-0.000360913	0
    Cl(r):	0.391459	0.393009	-0.00155043	0
    CmPitch:	0.000594756	-9.52339e-13	0.000594756	0
    CmRoll:	-0.392053	-0.393009	0.000955669	0
    CmYaw:	0.568333	0.55871	0.00962361	0
    Cs:	2.35883e-20	2.35454e-20	4.2845e-23	0
    Cs(f):	0.568333	0.55871	0.00962361	0
    Cs(r):	-0.568333	-0.55871	-0.00962361	0

    writing force and moment coefficient files.

Time = 1997

smoothSolver:  Solving for Ux, Initial residual = 0.032494, Final residual = 9.44301e-13, No Iterations 75
smoothSolver:  Solving for Uy, Initial residual = 0.0384739, Final residual = 7.4452e-13, No Iterations 77
GAMG:  Solving for p, Initial residual = 0.022882, Final residual = 7.52704e-13, No Iterations 45
time step continuity errors : sum local = 1.7487e-13, global = -8.30216e-15, cumulative = 3.51839e-12
smoothSolver:  Solving for epsilon, Initial residual = 0.00780561, Final residual = 7.28907e-13, No Iterations 51
smoothSolver:  Solving for k, Initial residual = 0.00706226, Final residual = 8.4096e-13, No Iterations 59
ExecutionTime = 1402.03 s  ClockTime = 1402 s

forceCoeffs forceCoeffs write:
    Coefficient	Total	Pressure	Viscous	Internal
    Cd:	1.14741	1.12802	0.0193865	0
    Cd(f):	0.124525	0.114178	0.0103469	0
    Cd(r):	1.02288	1.01384	0.00903954	0
    Cl:	0.898357	0.899665	-0.00130739	0
    Cl(f):	0.449822	0.449832	-1.01533e-05	0
    Cl(r):	0.448535	0.449832	-0.00129724	0
    CmPitch:	0.000643541	-1.21119e-12	0.000643541	0
    CmRoll:	-0.449179	-0.449832	0.000653695	0
    CmYaw:	0.573704	0.56401	0.00969323	0
    Cs:	2.61953e-20	2.5704e-20	4.91296e-22	0
    Cs(f):	0.573704	0.56401	0.00969323	0
    Cs(r):	-0.573704	-0.56401	-0.00969323	0

    writing force and moment coefficient files.

Time = 1998

smoothSolver:  Solving for Ux, Initial residual = 0.0325795, Final residual = 9.44358e-13, No Iterations 75
smoothSolver:  Solving for Uy, Initial residual = 0.0383168, Final residual = 7.41686e-13, No Iterations 77
GAMG:  Solving for p, Initial residual = 0.0228184, Final residual = 8.21134e-13, No Iterations 45
time step continuity errors : sum local = 1.90231e-13, global = -8.91574e-15, cumulative = 3.50948e-12
smoothSolver:  Solving for epsilon, Initial residual = 0.00758244, Final residual = 9.94741e-13, No Iterations 50
smoothSolver:  Solving for k, Initial residual = 0.00700508, Final residual = 8.23576e-13, No Iterations 59
ExecutionTime = 1402.73 s  ClockTime = 1403 s

forceCoeffs forceCoeffs write:
    Coefficient	Total	Pressure	Viscous	Internal
    Cd:	1.15897	1.13943	0.0195355	0
    Cd(f):	0.0774253	0.0673152	0.0101101	0
    Cd(r):	1.08154	1.07212	0.00942538	0
    Cl:	1.00412	1.0048	-0.000684763	0
    Cl(f):	0.502744	0.502401	0.000342469	0
    Cl(r):	0.501374	0.502401	-0.00102723	0
    CmPitch:	0.000684851	-1.68753e-12	0.000684851	0
    CmRoll:	-0.502059	-0.502401	0.000342382	0
    CmYaw:	0.579484	0.569716	0.00976777	0
    Cs:	2.84505e-20	2.74512e-20	9.99231e-22	0
    Cs(f):	0.579484	0.569716	0.00976777	0
    Cs(r):	-0.579484	-0.569716	-0.00976777	0

    writing force and moment coefficient files.

Time = 1999

smoothSolver:  Solving for Ux, Initial residual = 0.0326581, Final residual = 9.44093e-13, No Iterations 75
smoothSolver:  Solving for Uy, Initial residual = 0.0381115, Final residual = 7.41801e-13, No Iterations 77
GAMG:  Solving for p, Initial residual = 0.0227456, Final residual = 8.90595e-13, No Iterations 45
time step continuity errors : sum local = 2.05754e-13, global = -9.50895e-15, cumulative = 3.49997e-12
smoothSolver:  Solving for epsilon, Initial residual = 0.00746312, Final residual = 8.50258e-13, No Iterations 50
smoothSolver:  Solving for k, Initial residual = 0.00694636, Final residual = 7.86149e-13, No Iterations 59
ExecutionTime = 1403.41 s  ClockTime = 1404 s

forceCoeffs forceCoeffs write:
    Coefficient	Total	Pressure	Viscous	Internal
    Cd:	1.17273	1.15304	0.0196899	0
    Cd(f):	0.0365334	0.0266626	0.00987087	0
    Cd(r):	1.1362	1.12638	0.00981904	0
    Cl:	1.09966	1.09972	-5.18341e-05	0
    Cl(f):	0.55054	0.549858	0.000682372	0
    Cl(r):	0.549124	0.549858	-0.000734206	0
    CmPitch:	0.000708289	-2.28603e-12	0.000708289	0
    CmRoll:	-0.549832	-0.549858	2.5917e-05	0
    CmYaw:	0.586365	0.57652	0.00984495	0
    Cs:	3.01603e-20	2.87066e-20	1.45368e-21	0
    Cs(f):	0.586365	0.57652	0.00984495	0
    Cs(r):	-0.586365	-0.57652	-0.00984495	0

    writing force and moment coefficient files.

Time = 2000

smoothSolver:  Solving for Ux, Initial residual = 0.0327177, Final residual = 9.41715e-13, No Iterations 75
smoothSolver:  Solving for Uy, Initial residual = 0.0378712, Final residual = 7.43999e-13, No Iterations 77
GAMG:  Solving for p, Initial residual = 0.0226026, Final residual = 8.87856e-13, No Iterations 45
time step continuity errors : sum local = 2.0428e-13, global = -9.42257e-15, cumulative = 3.49055e-12
smoothSolver:  Solving for epsilon, Initial residual = 0.00723709, Final residual = 7.62013e-13, No Iterations 50
smoothSolver:  Solving for k, Initial residual = 0.00689007, Final residual = 7.20459e-13, No Iterations 59
ExecutionTime = 1404.31 s  ClockTime = 1405 s

forceCoeffs forceCoeffs write:
    Coefficient	Total	Pressure	Viscous	Internal
    Cd:	1.1888	1.16895	0.0198473	0
    Cd(f):	0.0011905	-0.00844463	0.00963513	0
    Cd(r):	1.18761	1.1774	0.0102122	0
    Cl:	1.18642	1.18584	0.000577057	0
    Cl(f):	0.593936	0.592921	0.00101518	0
    Cl(r):	0.592483	0.592921	-0.000438124	0
    CmPitch:	0.000726652	-2.94757e-12	0.000726652	0
    CmRoll:	-0.593209	-0.592921	-0.000288529	0
    CmYaw:	0.5944	0.584476	0.00992366	0
    Cs:	3.07091e-20	2.95713e-20	1.13776e-21	0
    Cs(f):	0.5944	0.584476	0.00992366	0
    Cs(r):	-0.5944	-0.584476	-0.00992366	0

    writing force and moment coefficient files.

streamLine streamlines write:
    seeded 0 particles
    Tracks:0
    Total samples:0
End

