/*---------------------------------------------------------------------------*\
| =========                 |                                                 |
| \\      /  F ield         | OpenFOAM: The Open Source CFD Toolbox           |
|  \\    /   O peration     | Version:  2312                                  |
|   \\  /    A nd           | Website:  www.openfoam.com                      |
|    \\/     M anipulation  |                                                 |
\*---------------------------------------------------------------------------*/
Build  : _c39a0f64-20231220 OPENFOAM=2312 version=2312
Arch   : "LSB;label=32;scalar=64"
Exec   : simpleFoam
Date   : Jun 13 2024
Time   : 14:10:02
Host   : Manas
PID    : 83255
I/O    : uncollated
Case   : /home/manascfd/Masters_Projects_Main/RANS/R1/CF_Kw_1
nProcs : 1
trapFpe: Floating point exception trapping enabled (FOAM_SIGFPE).
fileModificationChecking : Monitoring run-time modified files using timeStampMaster (fileModificationSkew 5, maxFileModificationPolls 20)
allowSystemOperations : Allowing user-supplied system call operations

// * * * * * * * * * * * * * * * * * * * * * * * * * * * * * * * * * * * * * //
Create time

Create mesh for time = 0


SIMPLE: convergence criteria
    field p	 tolerance 1e-12
    field U	 tolerance 1e-12
    field "(k|epsilon|omega|f|v2)"	 tolerance 1e-12

Reading field p

Reading field U

Reading/calculating face flux field phi

Selecting incompressible transport model Newtonian
Selecting turbulence model type RAS
Selecting RAS turbulence model kOmega
RAS
{
    RASModel        kOmega;
    turbulence      on;
    printCoeffs     on;
    betaStar        0.09;
    beta            0.072;
    gamma           0.52;
    alphaK          0.5;
    alphaOmega      0.5;
}

No MRF models present

No finite volume options present

Starting time loop

forceCoeffs forceCoeffs:
    rho: rhoInf
    Freestream density (rhoInf) set to 1
    Not including porosity effects
    magUInf: 1
    lRef   : 1
    Aref   : 1
    rhoInf : 1
    Selecting all coefficients
    - Drag force: Cd
    - Drag force front: Cd(f)
    - Drag force rear: Cd(r)
    - Lift force: Cl
    - Lift force front: Cl(f)
    - Lift force rear: Cl(r)
    - Pitch moment: CmPitch
    - Roll moment: CmRoll
    - Yaw moment: CmYaw
    - Side force: Cs
    - Side force front: Cs(f)
    - Side force rear: Cs(r)


Sampled set:
    sampleLine_U -> raw

streamLine streamlines:
    Employing velocity field U
    automatic track length specified through number of sub cycles : 5

Time = 1

smoothSolver:  Solving for Ux, Initial residual = 1, Final residual = 7.75426e-13, No Iterations 82
smoothSolver:  Solving for Uy, Initial residual = 1, Final residual = 9.55339e-13, No Iterations 80
GAMG:  Solving for p, Initial residual = 1, Final residual = 8.65187e-13, No Iterations 64
time step continuity errors : sum local = 2.36647e-14, global = -2.84252e-17, cumulative = -2.84252e-17
smoothSolver:  Solving for omega, Initial residual = 0.150203, Final residual = 7.90514e-13, No Iterations 77
smoothSolver:  Solving for k, Initial residual = 1, Final residual = 9.28531e-13, No Iterations 86
ExecutionTime = 1.73 s  ClockTime = 2 s

forceCoeffs forceCoeffs write:
    Coefficient	Total	Pressure	Viscous	Internal
    Cd:	179.158	178.946	0.212759	0
    Cd(f):	88.8974	88.7919	0.105545	0
    Cd(r):	90.261	90.1538	0.107214	0
    Cl:	1.3636	1.36193	0.00166853	0
    Cl(f):	0.682057	0.680964	0.00109275	0
    Cl(r):	0.68154	0.680964	0.000575776	0
    CmPitch:	0.000258489	9.70776e-12	0.000258489	0
    CmRoll:	-0.681798	-0.680964	-0.000834265	0
    CmYaw:	89.5792	89.4728	0.106379	0
    Cs:	-4.45377e-19	-6.48486e-19	2.03108e-19	0
    Cs(f):	89.5792	89.4728	0.106379	0
    Cs(r):	-89.5792	-89.4728	-0.106379	0

    writing force and moment coefficient files.

Time = 2

smoothSolver:  Solving for Ux, Initial residual = 0.297534, Final residual = 7.81657e-13, No Iterations 87
smoothSolver:  Solving for Uy, Initial residual = 0.388082, Final residual = 7.84239e-13, No Iterations 88
GAMG:  Solving for p, Initial residual = 0.467038, Final residual = 9.53249e-13, No Iterations 52
time step continuity errors : sum local = 1.04944e-12, global = 3.49963e-14, cumulative = 3.49678e-14
smoothSolver:  Solving for omega, Initial residual = 0.181026, Final residual = 9.15895e-13, No Iterations 73
bounding omega, min: -414.262 max: 8293.07 average: 5.65155
smoothSolver:  Solving for k, Initial residual = 0.330298, Final residual = 8.72183e-13, No Iterations 81
bounding k, min: -0.272715 max: 4.93389 average: 0.0174774
ExecutionTime = 2.64 s  ClockTime = 3 s

forceCoeffs forceCoeffs write:
    Coefficient	Total	Pressure	Viscous	Internal
    Cd:	25.1136	26.0887	-0.975103	0
    Cd(f):	12.6656	13.1457	-0.480086	0
    Cd(r):	12.448	12.943	-0.495018	0
    Cl:	-0.217633	-0.202702	-0.0149317	0
    Cl(f):	-0.107249	-0.101351	-0.00589828	0
    Cl(r):	-0.110384	-0.101351	-0.00903339	0
    CmPitch:	0.00156755	-1.47422e-11	0.00156755	0
    CmRoll:	0.108817	0.101351	0.00746583	0
    CmYaw:	12.5568	13.0444	-0.487552	0
    Cs:	-3.57625e-18	-2.54078e-19	-3.32217e-18	0
    Cs(f):	12.5568	13.0444	-0.487552	0
    Cs(r):	-12.5568	-13.0444	0.487552	0

    writing force and moment coefficient files.

Time = 3

smoothSolver:  Solving for Ux, Initial residual = 0.150316, Final residual = 7.95576e-13, No Iterations 82
smoothSolver:  Solving for Uy, Initial residual = 0.21951, Final residual = 8.16823e-13, No Iterations 81
GAMG:  Solving for p, Initial residual = 0.207648, Final residual = 9.17067e-13, No Iterations 43
time step continuity errors : sum local = 1.01789e-12, global = 2.54673e-14, cumulative = 6.04352e-14
smoothSolver:  Solving for omega, Initial residual = 0.250005, Final residual = 9.8632e-13, No Iterations 68
smoothSolver:  Solving for k, Initial residual = 0.153897, Final residual = 7.39295e-13, No Iterations 80
bounding k, min: -0.0689779 max: 3.31244 average: 0.0213536
ExecutionTime = 3.46 s  ClockTime = 3 s

forceCoeffs forceCoeffs write:
    Coefficient	Total	Pressure	Viscous	Internal
    Cd:	0.205938	0.602729	-0.39679	0
    Cd(f):	-0.185161	0.0202929	-0.205454	0
    Cd(r):	0.391099	0.582436	-0.191337	0
    Cl:	0.57626	0.562143	0.014117	0
    Cl(f):	0.284745	0.281071	0.00367337	0
    Cl(r):	0.291515	0.281071	0.0104436	0
    CmPitch:	-0.00338512	6.28136e-12	-0.00338512	0
    CmRoll:	-0.28813	-0.281071	-0.00705849	0
    CmYaw:	0.102969	0.301364	-0.198395	0
    Cs:	-3.33771e-19	-7.0522e-20	-2.63249e-19	0
    Cs(f):	0.102969	0.301364	-0.198395	0
    Cs(r):	-0.102969	-0.301364	0.198395	0

    writing force and moment coefficient files.

Time = 4

smoothSolver:  Solving for Ux, Initial residual = 0.0802822, Final residual = 9.45473e-13, No Iterations 80
smoothSolver:  Solving for Uy, Initial residual = 0.0924735, Final residual = 8.62306e-13, No Iterations 77
GAMG:  Solving for p, Initial residual = 0.122807, Final residual = 7.5306e-13, No Iterations 41
time step continuity errors : sum local = 6.37215e-13, global = 2.12419e-14, cumulative = 8.1677e-14
smoothSolver:  Solving for omega, Initial residual = 0.0657278, Final residual = 8.08466e-13, No Iterations 69
smoothSolver:  Solving for k, Initial residual = 0.0958205, Final residual = 9.92277e-13, No Iterations 79
ExecutionTime = 4.39 s  ClockTime = 4 s

forceCoeffs forceCoeffs write:
    Coefficient	Total	Pressure	Viscous	Internal
    Cd:	-0.106033	-0.0344519	-0.0715812	0
    Cd(f):	-0.134406	-0.0922228	-0.0421834	0
    Cd(r):	0.028373	0.0577708	-0.0293978	0
    Cl:	0.162779	0.149994	0.0127855	0
    Cl(f):	0.0783446	0.0749968	0.00334781	0
    Cl(r):	0.0844345	0.0749968	0.00943774	0
    CmPitch:	-0.00304497	1.92277e-11	-0.00304497	0
    CmRoll:	-0.0813896	-0.0749968	-0.00639277	0
    CmYaw:	-0.0530166	-0.017226	-0.0357906	0
    Cs:	-5.50076e-20	-5.87687e-20	3.76107e-21	0
    Cs(f):	-0.0530166	-0.017226	-0.0357906	0
    Cs(r):	0.0530166	0.017226	0.0357906	0

    writing force and moment coefficient files.

Time = 5

smoothSolver:  Solving for Ux, Initial residual = 0.0502501, Final residual = 7.95944e-13, No Iterations 80
smoothSolver:  Solving for Uy, Initial residual = 0.0547009, Final residual = 7.61198e-13, No Iterations 77
GAMG:  Solving for p, Initial residual = 0.0821249, Final residual = 6.94752e-13, No Iterations 41
time step continuity errors : sum local = 5.71743e-13, global = 2.39506e-14, cumulative = 1.05628e-13
smoothSolver:  Solving for omega, Initial residual = 0.0314413, Final residual = 7.6462e-13, No Iterations 70
smoothSolver:  Solving for k, Initial residual = 0.0759237, Final residual = 7.98138e-13, No Iterations 80
ExecutionTime = 5.24 s  ClockTime = 5 s

forceCoeffs forceCoeffs write:
    Coefficient	Total	Pressure	Viscous	Internal
    Cd:	1.39429	1.33908	0.0552078	0
    Cd(f):	0.651775	0.624041	0.0277343	0
    Cd(r):	0.742511	0.715037	0.0274735	0
    Cl:	0.0907359	0.0909966	-0.000260719	0
    Cl(f):	0.0459188	0.0454983	0.000420483	0
    Cl(r):	0.0448171	0.0454983	-0.000681202	0
    CmPitch:	0.000550843	1.90365e-11	0.000550843	0
    CmRoll:	-0.0453679	-0.0454983	0.000130359	0
    CmYaw:	0.697143	0.669539	0.0276039	0
    Cs:	-5.02124e-20	-5.80928e-20	7.88037e-21	0
    Cs(f):	0.697143	0.669539	0.0276039	0
    Cs(r):	-0.697143	-0.669539	-0.0276039	0

    writing force and moment coefficient files.

Time = 6

smoothSolver:  Solving for Ux, Initial residual = 0.0396412, Final residual = 9.04496e-13, No Iterations 79
smoothSolver:  Solving for Uy, Initial residual = 0.0465467, Final residual = 9.00878e-13, No Iterations 76
GAMG:  Solving for p, Initial residual = 0.0702516, Final residual = 8.30452e-13, No Iterations 40
time step continuity errors : sum local = 6.51403e-13, global = 2.54105e-14, cumulative = 1.31038e-13
smoothSolver:  Solving for omega, Initial residual = 0.0175149, Final residual = 8.52027e-13, No Iterations 70
smoothSolver:  Solving for k, Initial residual = 0.0658649, Final residual = 9.0878e-13, No Iterations 80
ExecutionTime = 6.11 s  ClockTime = 6 s

forceCoeffs forceCoeffs write:
    Coefficient	Total	Pressure	Viscous	Internal
    Cd:	2.11379	2.01066	0.103124	0
    Cd(f):	1.00852	0.956366	0.0521544	0
    Cd(r):	1.10527	1.0543	0.0509693	0
    Cl:	0.0967478	0.0979329	-0.00118508	0
    Cl(f):	0.048767	0.0489665	-0.00019948	0
    Cl(r):	0.0479809	0.0489665	-0.000985595	0
    CmPitch:	0.000393057	8.74841e-12	0.000393057	0
    CmRoll:	-0.0483739	-0.0489665	0.000592538	0
    CmYaw:	1.05689	1.00533	0.0515619	0
    Cs:	-5.41095e-20	-5.56395e-20	1.52996e-21	0
    Cs(f):	1.05689	1.00533	0.0515619	0
    Cs(r):	-1.05689	-1.00533	-0.0515619	0

    writing force and moment coefficient files.

Time = 7

smoothSolver:  Solving for Ux, Initial residual = 0.0343213, Final residual = 7.93625e-13, No Iterations 79
smoothSolver:  Solving for Uy, Initial residual = 0.0432185, Final residual = 9.21474e-13, No Iterations 76
GAMG:  Solving for p, Initial residual = 0.063022, Final residual = 8.3865e-13, No Iterations 39
time step continuity errors : sum local = 6.29654e-13, global = 2.5507e-14, cumulative = 1.56545e-13
smoothSolver:  Solving for omega, Initial residual = 0.0128816, Final residual = 8.88618e-13, No Iterations 70
smoothSolver:  Solving for k, Initial residual = 0.0597749, Final residual = 7.70783e-13, No Iterations 81
ExecutionTime = 7.16 s  ClockTime = 7 s

forceCoeffs forceCoeffs write:
    Coefficient	Total	Pressure	Viscous	Internal
    Cd:	2.29644	2.18553	0.110913	0
    Cd(f):	1.09748	1.04146	0.0560128	0
    Cd(r):	1.19897	1.14407	0.0549	0
    Cl:	0.101493	0.102606	-0.00111275	0
    Cl(f):	0.050814	0.0513028	-0.000488786	0
    Cl(r):	0.0506788	0.0513028	-0.000623963	0
    CmPitch:	6.75885e-05	3.30865e-13	6.75885e-05	0
    CmRoll:	-0.0507464	-0.0513028	0.000556374	0
    CmYaw:	1.14822	1.09277	0.0554564	0
    Cs:	-6.35155e-20	-5.43048e-20	-9.21077e-21	0
    Cs(f):	1.14822	1.09277	0.0554564	0
    Cs(r):	-1.14822	-1.09277	-0.0554564	0

    writing force and moment coefficient files.

Time = 8

smoothSolver:  Solving for Ux, Initial residual = 0.0309677, Final residual = 9.69306e-13, No Iterations 78
smoothSolver:  Solving for Uy, Initial residual = 0.0411114, Final residual = 8.87779e-13, No Iterations 76
GAMG:  Solving for p, Initial residual = 0.0557398, Final residual = 8.61597e-13, No Iterations 39
time step continuity errors : sum local = 6.20034e-13, global = 2.62126e-14, cumulative = 1.82758e-13
smoothSolver:  Solving for omega, Initial residual = 0.010351, Final residual = 8.87749e-13, No Iterations 70
smoothSolver:  Solving for k, Initial residual = 0.0554532, Final residual = 8.72099e-13, No Iterations 81
ExecutionTime = 8.13 s  ClockTime = 8 s

forceCoeffs forceCoeffs write:
    Coefficient	Total	Pressure	Viscous	Internal
    Cd:	2.39032	2.28524	0.105085	0
    Cd(f):	1.13794	1.08429	0.0536578	0
    Cd(r):	1.25238	1.20095	0.0514275	0
    Cl:	0.114434	0.116664	-0.00223035	0
    Cl(f):	0.0572791	0.0583322	-0.00105312	0
    Cl(r):	0.057155	0.0583322	-0.00117723	0
    CmPitch:	6.2057e-05	-5.40309e-12	6.2057e-05	0
    CmRoll:	-0.057217	-0.0583322	0.00111518	0
    CmYaw:	1.19516	1.14262	0.0525427	0
    Cs:	-6.90804e-20	-5.51364e-20	-1.39439e-20	0
    Cs(f):	1.19516	1.14262	0.0525427	0
    Cs(r):	-1.19516	-1.14262	-0.0525427	0

    writing force and moment coefficient files.

Time = 9

smoothSolver:  Solving for Ux, Initial residual = 0.0284324, Final residual = 8.89322e-13, No Iterations 78
smoothSolver:  Solving for Uy, Initial residual = 0.0391314, Final residual = 8.54425e-13, No Iterations 76
GAMG:  Solving for p, Initial residual = 0.0512577, Final residual = 6.42434e-13, No Iterations 40
time step continuity errors : sum local = 4.57221e-13, global = 2.23016e-14, cumulative = 2.05059e-13
smoothSolver:  Solving for omega, Initial residual = 0.00905561, Final residual = 8.89401e-13, No Iterations 70
smoothSolver:  Solving for k, Initial residual = 0.0518903, Final residual = 9.72529e-13, No Iterations 81
ExecutionTime = 9.11 s  ClockTime = 9 s

forceCoeffs forceCoeffs write:
    Coefficient	Total	Pressure	Viscous	Internal
    Cd:	2.4738	2.37365	0.100158	0
    Cd(f):	1.18643	1.13519	0.0512381	0
    Cd(r):	1.28738	1.23846	0.0489201	0
    Cl:	0.100954	0.103272	-0.00231797	0
    Cl(f):	0.0507507	0.0516362	-0.000885482	0
    Cl(r):	0.0502037	0.0516362	-0.00143249	0
    CmPitch:	0.000273504	-7.41772e-12	0.000273504	0
    CmRoll:	-0.0504772	-0.0516362	0.00115899	0
    CmYaw:	1.2369	1.18682	0.0500791	0
    Cs:	-7.65587e-20	-5.7643e-20	-1.89156e-20	0
    Cs(f):	1.2369	1.18682	0.0500791	0
    Cs(r):	-1.2369	-1.18682	-0.0500791	0

    writing force and moment coefficient files.

Time = 10

smoothSolver:  Solving for Ux, Initial residual = 0.0263304, Final residual = 8.2356e-13, No Iterations 78
smoothSolver:  Solving for Uy, Initial residual = 0.0369779, Final residual = 8.30513e-13, No Iterations 76
GAMG:  Solving for p, Initial residual = 0.0480666, Final residual = 6.75476e-13, No Iterations 40
time step continuity errors : sum local = 4.7511e-13, global = 2.29333e-14, cumulative = 2.27993e-13
smoothSolver:  Solving for omega, Initial residual = 0.00808193, Final residual = 8.94281e-13, No Iterations 70
smoothSolver:  Solving for k, Initial residual = 0.0487298, Final residual = 7.8773e-13, No Iterations 82
ExecutionTime = 10 s  ClockTime = 10 s

forceCoeffs forceCoeffs write:
    Coefficient	Total	Pressure	Viscous	Internal
    Cd:	2.5633	2.46641	0.0968897	0
    Cd(f):	1.22828	1.17908	0.0492023	0
    Cd(r):	1.33502	1.28733	0.0476874	0
    Cl:	0.106743	0.108258	-0.00151486	0
    Cl(f):	0.0537402	0.0541291	-0.000388854	0
    Cl(r):	0.0530031	0.0541291	-0.00112601	0
    CmPitch:	0.000368575	-8.19143e-12	0.000368575	0
    CmRoll:	-0.0533716	-0.0541291	0.00075743	0
    CmYaw:	1.28165	1.2332	0.0484448	0
    Cs:	-8.84068e-20	-6.05587e-20	-2.78481e-20	0
    Cs(f):	1.28165	1.2332	0.0484448	0
    Cs(r):	-1.28165	-1.2332	-0.0484448	0

    writing force and moment coefficient files.

Time = 11

smoothSolver:  Solving for Ux, Initial residual = 0.0244695, Final residual = 7.68165e-13, No Iterations 78
smoothSolver:  Solving for Uy, Initial residual = 0.0349792, Final residual = 8.12496e-13, No Iterations 76
GAMG:  Solving for p, Initial residual = 0.0441113, Final residual = 6.9214e-13, No Iterations 40
time step continuity errors : sum local = 4.66166e-13, global = 2.26782e-14, cumulative = 2.50671e-13
smoothSolver:  Solving for omega, Initial residual = 0.00724738, Final residual = 8.85914e-13, No Iterations 70
smoothSolver:  Solving for k, Initial residual = 0.04588, Final residual = 8.48232e-13, No Iterations 82
ExecutionTime = 11.18 s  ClockTime = 11 s

forceCoeffs forceCoeffs write:
    Coefficient	Total	Pressure	Viscous	Internal
    Cd:	2.66008	2.56765	0.0924297	0
    Cd(f):	1.27622	1.22974	0.0464793	0
    Cd(r):	1.38386	1.33791	0.0459504	0
    Cl:	0.107643	0.108172	-0.000528845	0
    Cl(f):	0.053979	0.054086	-0.000107005	0
    Cl(r):	0.0536641	0.054086	-0.000421841	0
    CmPitch:	0.000157418	-6.57779e-12	0.000157418	0
    CmRoll:	-0.0538215	-0.054086	0.000264423	0
    CmYaw:	1.33004	1.28382	0.0462149	0
    Cs:	-8.90784e-20	-6.33877e-20	-2.56907e-20	0
    Cs(f):	1.33004	1.28382	0.0462149	0
    Cs(r):	-1.33004	-1.28382	-0.0462149	0

    writing force and moment coefficient files.

Time = 12

smoothSolver:  Solving for Ux, Initial residual = 0.0228425, Final residual = 9.73536e-13, No Iterations 77
smoothSolver:  Solving for Uy, Initial residual = 0.0331428, Final residual = 7.96099e-13, No Iterations 76
GAMG:  Solving for p, Initial residual = 0.0408433, Final residual = 6.4395e-13, No Iterations 40
time step continuity errors : sum local = 4.20924e-13, global = 2.01855e-14, cumulative = 2.70856e-13
smoothSolver:  Solving for omega, Initial residual = 0.00651536, Final residual = 8.85086e-13, No Iterations 70
smoothSolver:  Solving for k, Initial residual = 0.0431717, Final residual = 8.99093e-13, No Iterations 82
ExecutionTime = 12.16 s  ClockTime = 12 s

forceCoeffs forceCoeffs write:
    Coefficient	Total	Pressure	Viscous	Internal
    Cd:	2.77309	2.6825	0.0905907	0
    Cd(f):	1.3317	1.2862	0.0454978	0
    Cd(r):	1.44139	1.3963	0.0450928	0
    Cl:	0.109691	0.110096	-0.000404997	0
    Cl(f):	0.0551998	0.0550482	0.000151552	0
    Cl(r):	0.0544917	0.0550482	-0.000556548	0
    CmPitch:	0.00035405	-5.16864e-12	0.00035405	0
    CmRoll:	-0.0548457	-0.0550482	0.000202498	0
    CmYaw:	1.38654	1.34125	0.0452953	0
    Cs:	-9.24323e-20	-6.5921e-20	-2.65113e-20	0
    Cs(f):	1.38654	1.34125	0.0452953	0
    Cs(r):	-1.38654	-1.34125	-0.0452953	0

    writing force and moment coefficient files.

Time = 13

smoothSolver:  Solving for Ux, Initial residual = 0.0214033, Final residual = 9.18667e-13, No Iterations 77
smoothSolver:  Solving for Uy, Initial residual = 0.0313875, Final residual = 7.83521e-13, No Iterations 76
GAMG:  Solving for p, Initial residual = 0.0379716, Final residual = 9.72276e-13, No Iterations 39
time step continuity errors : sum local = 6.22336e-13, global = 2.47146e-14, cumulative = 2.95571e-13
smoothSolver:  Solving for omega, Initial residual = 0.0059322, Final residual = 8.81891e-13, No Iterations 70
smoothSolver:  Solving for k, Initial residual = 0.040693, Final residual = 9.32085e-13, No Iterations 82
ExecutionTime = 13.14 s  ClockTime = 13 s

forceCoeffs forceCoeffs write:
    Coefficient	Total	Pressure	Viscous	Internal
    Cd:	2.89141	2.80099	0.0904162	0
    Cd(f):	1.39043	1.34505	0.0453772	0
    Cd(r):	1.50098	1.45594	0.045039	0
    Cl:	0.110552	0.110891	-0.000338207	0
    Cl(f):	0.05558	0.0554453	0.000134702	0
    Cl(r):	0.0549724	0.0554453	-0.000472909	0
    CmPitch:	0.000303805	-3.88375e-12	0.000303805	0
    CmRoll:	-0.0552762	-0.0554453	0.000169104	0
    CmYaw:	1.4457	1.4005	0.0452081	0
    Cs:	-9.33122e-20	-6.84211e-20	-2.48912e-20	0
    Cs(f):	1.4457	1.4005	0.0452081	0
    Cs(r):	-1.4457	-1.4005	-0.0452081	0

    writing force and moment coefficient files.

Time = 14

smoothSolver:  Solving for Ux, Initial residual = 0.0201257, Final residual = 8.70511e-13, No Iterations 77
smoothSolver:  Solving for Uy, Initial residual = 0.0297625, Final residual = 7.72451e-13, No Iterations 76
GAMG:  Solving for p, Initial residual = 0.0353865, Final residual = 7.1233e-13, No Iterations 39
time step continuity errors : sum local = 4.41172e-13, global = 1.89675e-14, cumulative = 3.14539e-13
smoothSolver:  Solving for omega, Initial residual = 0.00539194, Final residual = 8.82976e-13, No Iterations 70
smoothSolver:  Solving for k, Initial residual = 0.0383813, Final residual = 9.55825e-13, No Iterations 82
ExecutionTime = 14.09 s  ClockTime = 14 s

forceCoeffs forceCoeffs write:
    Coefficient	Total	Pressure	Viscous	Internal
    Cd:	3.00919	2.9179	0.0912858	0
    Cd(f):	1.44776	1.40202	0.0457455	0
    Cd(r):	1.56142	1.51588	0.0455402	0
    Cl:	0.113657	0.113863	-0.000205274	0
    Cl(f):	0.0571512	0.0569314	0.000219788	0
    Cl(r):	0.0565063	0.0569314	-0.000425062	0
    CmPitch:	0.000322425	-2.41157e-12	0.000322425	0
    CmRoll:	-0.0568287	-0.0569314	0.000102637	0
    CmYaw:	1.50459	1.45895	0.0456429	0
    Cs:	-9.8612e-20	-7.07942e-20	-2.78178e-20	0
    Cs(f):	1.50459	1.45895	0.0456429	0
    Cs(r):	-1.50459	-1.45895	-0.0456429	0

    writing force and moment coefficient files.

Time = 15

smoothSolver:  Solving for Ux, Initial residual = 0.0190066, Final residual = 8.27635e-13, No Iterations 77
smoothSolver:  Solving for Uy, Initial residual = 0.0282818, Final residual = 7.60261e-13, No Iterations 76
GAMG:  Solving for p, Initial residual = 0.0330779, Final residual = 9.54451e-13, No Iterations 39
time step continuity errors : sum local = 5.71083e-13, global = 3.01044e-14, cumulative = 3.44643e-13
smoothSolver:  Solving for omega, Initial residual = 0.00490795, Final residual = 8.84476e-13, No Iterations 70
smoothSolver:  Solving for k, Initial residual = 0.0362611, Final residual = 9.68832e-13, No Iterations 82
ExecutionTime = 15.07 s  ClockTime = 15 s

forceCoeffs forceCoeffs write:
    Coefficient	Total	Pressure	Viscous	Internal
    Cd:	3.12563	3.03277	0.092852	0
    Cd(f):	1.50258	1.4563	0.046279	0
    Cd(r):	1.62305	1.57648	0.046573	0
    Cl:	0.120475	0.120181	0.000294024	0
    Cl(f):	0.0604512	0.0600905	0.00036074	0
    Cl(r):	0.0600238	0.0600905	-6.67169e-05	0
    CmPitch:	0.000213729	-8.50306e-13	0.000213729	0
    CmRoll:	-0.0602375	-0.0600905	-0.000147012	0
    CmYaw:	1.56281	1.51639	0.046426	0
    Cs:	-9.83872e-20	-7.30919e-20	-2.52953e-20	0
    Cs(f):	1.56281	1.51639	0.046426	0
    Cs(r):	-1.56281	-1.51639	-0.046426	0

    writing force and moment coefficient files.

Time = 16

smoothSolver:  Solving for Ux, Initial residual = 0.0180165, Final residual = 7.88964e-13, No Iterations 77
smoothSolver:  Solving for Uy, Initial residual = 0.0269529, Final residual = 7.43461e-13, No Iterations 76
GAMG:  Solving for p, Initial residual = 0.0307757, Final residual = 9.55511e-13, No Iterations 39
time step continuity errors : sum local = 5.54035e-13, global = -1.50062e-14, cumulative = 3.29637e-13
smoothSolver:  Solving for omega, Initial residual = 0.00466447, Final residual = 8.91669e-13, No Iterations 70
smoothSolver:  Solving for k, Initial residual = 0.0342867, Final residual = 9.68804e-13, No Iterations 82
ExecutionTime = 15.93 s  ClockTime = 16 s

forceCoeffs forceCoeffs write:
    Coefficient	Total	Pressure	Viscous	Internal
    Cd:	3.24601	3.15136	0.0946452	0
    Cd(f):	1.5599	1.513	0.0469008	0
    Cd(r):	1.68611	1.63836	0.0477444	0
    Cl:	0.126207	0.125363	0.000843626	0
    Cl(f):	0.063144	0.0626816	0.000462407	0
    Cl(r):	0.0630628	0.0626816	0.000381219	0
    CmPitch:	4.05937e-05	6.61026e-13	4.05937e-05	0
    CmRoll:	-0.0631034	-0.0626816	-0.000421813	0
    CmYaw:	1.623	1.57568	0.0473226	0
    Cs:	-1.002e-19	-7.55448e-20	-2.46557e-20	0
    Cs(f):	1.623	1.57568	0.0473226	0
    Cs(r):	-1.623	-1.57568	-0.0473226	0

    writing force and moment coefficient files.

Time = 17

smoothSolver:  Solving for Ux, Initial residual = 0.0171139, Final residual = 7.5385e-13, No Iterations 77
smoothSolver:  Solving for Uy, Initial residual = 0.0256603, Final residual = 9.78505e-13, No Iterations 75
GAMG:  Solving for p, Initial residual = 0.0289032, Final residual = 7.78268e-13, No Iterations 39
time step continuity errors : sum local = 4.41747e-13, global = -1.17647e-14, cumulative = 3.17872e-13
smoothSolver:  Solving for omega, Initial residual = 0.00438205, Final residual = 9.05326e-13, No Iterations 70
smoothSolver:  Solving for k, Initial residual = 0.0324993, Final residual = 9.57253e-13, No Iterations 82
ExecutionTime = 16.7 s  ClockTime = 17 s

forceCoeffs forceCoeffs write:
    Coefficient	Total	Pressure	Viscous	Internal
    Cd:	3.36442	3.26783	0.0965833	0
    Cd(f):	1.61709	1.56939	0.0476984	0
    Cd(r):	1.74733	1.69844	0.0488849	0
    Cl:	0.13024	0.129053	0.00118645	0
    Cl(f):	0.0650651	0.0645266	0.000538521	0
    Cl(r):	0.0651745	0.0645266	0.000647924	0
    CmPitch:	-5.47015e-05	1.94873e-12	-5.47015e-05	0
    CmRoll:	-0.0651198	-0.0645266	-0.000593223	0
    CmYaw:	1.68221	1.63392	0.0482917	0
    Cs:	-1.02528e-19	-7.8054e-20	-2.44737e-20	0
    Cs(f):	1.68221	1.63392	0.0482917	0
    Cs(r):	-1.68221	-1.63392	-0.0482917	0

    writing force and moment coefficient files.

Time = 18

smoothSolver:  Solving for Ux, Initial residual = 0.016287, Final residual = 9.74513e-13, No Iterations 76
smoothSolver:  Solving for Uy, Initial residual = 0.0244449, Final residual = 9.48406e-13, No Iterations 75
GAMG:  Solving for p, Initial residual = 0.0272858, Final residual = 9.25605e-13, No Iterations 38
time step continuity errors : sum local = 5.17072e-13, global = -1.71428e-14, cumulative = 3.00729e-13
smoothSolver:  Solving for omega, Initial residual = 0.00422925, Final residual = 9.17146e-13, No Iterations 70
smoothSolver:  Solving for k, Initial residual = 0.0308398, Final residual = 9.44634e-13, No Iterations 82
ExecutionTime = 17.52 s  ClockTime = 17 s

forceCoeffs forceCoeffs write:
    Coefficient	Total	Pressure	Viscous	Internal
    Cd:	3.48002	3.38194	0.0980819	0
    Cd(f):	1.67315	1.62473	0.0484205	0
    Cd(r):	1.80687	1.75721	0.0496614	0
    Cl:	0.133727	0.132486	0.00124096	0
    Cl(f):	0.0669178	0.066243	0.000674812	0
    Cl(r):	0.0668092	0.066243	0.000566145	0
    CmPitch:	5.43335e-05	2.87482e-12	5.43335e-05	0
    CmRoll:	-0.0668635	-0.066243	-0.000620478	0
    CmYaw:	1.74001	1.69097	0.0490409	0
    Cs:	-1.03685e-19	-8.0454e-20	-2.32305e-20	0
    Cs(f):	1.74001	1.69097	0.0490409	0
    Cs(r):	-1.74001	-1.69097	-0.0490409	0

    writing force and moment coefficient files.

Time = 19

smoothSolver:  Solving for Ux, Initial residual = 0.0155317, Final residual = 9.34849e-13, No Iterations 76
smoothSolver:  Solving for Uy, Initial residual = 0.0233123, Final residual = 9.15954e-13, No Iterations 75
GAMG:  Solving for p, Initial residual = 0.0259297, Final residual = 7.16097e-13, No Iterations 38
time step continuity errors : sum local = 3.96511e-13, global = -1.30098e-14, cumulative = 2.87719e-13
smoothSolver:  Solving for omega, Initial residual = 0.00402625, Final residual = 9.26393e-13, No Iterations 70
smoothSolver:  Solving for k, Initial residual = 0.0293185, Final residual = 9.29433e-13, No Iterations 82
ExecutionTime = 18.37 s  ClockTime = 18 s

forceCoeffs forceCoeffs write:
    Coefficient	Total	Pressure	Viscous	Internal
    Cd:	3.59073	3.49124	0.0994855	0
    Cd(f):	1.72767	1.6785	0.0491636	0
    Cd(r):	1.86306	1.81274	0.0503219	0
    Cl:	0.135396	0.134237	0.00115837	0
    Cl(f):	0.067943	0.0671186	0.000824443	0
    Cl(r):	0.0674525	0.0671186	0.000333929	0
    CmPitch:	0.000245257	3.42575e-12	0.000245257	0
    CmRoll:	-0.0676978	-0.0671186	-0.000579186	0
    CmYaw:	1.79536	1.74562	0.0497427	0
    Cs:	-1.05958e-19	-8.28166e-20	-2.3141e-20	0
    Cs(f):	1.79536	1.74562	0.0497427	0
    Cs(r):	-1.79536	-1.74562	-0.0497427	0

    writing force and moment coefficient files.

Time = 20

smoothSolver:  Solving for Ux, Initial residual = 0.0148411, Final residual = 8.98532e-13, No Iterations 76
smoothSolver:  Solving for Uy, Initial residual = 0.0222348, Final residual = 8.83442e-13, No Iterations 75
GAMG:  Solving for p, Initial residual = 0.0247086, Final residual = 9.92366e-13, No Iterations 37
time step continuity errors : sum local = 5.45487e-13, global = -1.37715e-14, cumulative = 2.73948e-13
smoothSolver:  Solving for omega, Initial residual = 0.00388218, Final residual = 9.33433e-13, No Iterations 70
smoothSolver:  Solving for k, Initial residual = 0.0279217, Final residual = 9.11501e-13, No Iterations 82
ExecutionTime = 19.17 s  ClockTime = 19 s

forceCoeffs forceCoeffs write:
    Coefficient	Total	Pressure	Viscous	Internal
    Cd:	3.69456	3.59399	0.100567	0
    Cd(f):	1.77835	1.72851	0.0498471	0
    Cd(r):	1.91621	1.86549	0.0507195	0
    Cl:	0.137853	0.136981	0.000872388	0
    Cl(f):	0.069444	0.0684904	0.000953572	0
    Cl(r):	0.0684092	0.0684904	-8.1184e-05	0
    CmPitch:	0.000517378	3.71696e-12	0.000517378	0
    CmRoll:	-0.0689266	-0.0684904	-0.000436194	0
    CmYaw:	1.84728	1.797	0.0502833	0
    Cs:	-1.09777e-19	-8.51197e-20	-2.46572e-20	0
    Cs(f):	1.84728	1.797	0.0502833	0
    Cs(r):	-1.84728	-1.797	-0.0502833	0

    writing force and moment coefficient files.

Time = 21

smoothSolver:  Solving for Ux, Initial residual = 0.0142085, Final residual = 8.65147e-13, No Iterations 76
smoothSolver:  Solving for Uy, Initial residual = 0.0212137, Final residual = 8.52428e-13, No Iterations 75
GAMG:  Solving for p, Initial residual = 0.0236073, Final residual = 7.50194e-13, No Iterations 37
time step continuity errors : sum local = 4.11021e-13, global = -1.03207e-14, cumulative = 2.63627e-13
smoothSolver:  Solving for omega, Initial residual = 0.00369908, Final residual = 9.36303e-13, No Iterations 70
smoothSolver:  Solving for k, Initial residual = 0.0266331, Final residual = 8.90778e-13, No Iterations 82
ExecutionTime = 19.91 s  ClockTime = 20 s

forceCoeffs forceCoeffs write:
    Coefficient	Total	Pressure	Viscous	Internal
    Cd:	3.79272	3.69135	0.101365	0
    Cd(f):	1.82587	1.77562	0.0502462	0
    Cd(r):	1.96685	1.91573	0.0511191	0
    Cl:	0.140986	0.140113	0.000872902	0
    Cl(f):	0.071062	0.0700567	0.00100526	0
    Cl(r):	0.0699244	0.0700567	-0.000132361	0
    CmPitch:	0.000568812	3.65156e-12	0.000568812	0
    CmRoll:	-0.0704932	-0.0700567	-0.000436451	0
    CmYaw:	1.89636	1.84568	0.0506827	0
    Cs:	-1.12039e-19	-8.72636e-20	-2.47754e-20	0
    Cs(f):	1.89636	1.84568	0.0506827	0
    Cs(r):	-1.89636	-1.84568	-0.0506827	0

    writing force and moment coefficient files.

Time = 22

smoothSolver:  Solving for Ux, Initial residual = 0.0136126, Final residual = 8.34233e-13, No Iterations 76
smoothSolver:  Solving for Uy, Initial residual = 0.0202701, Final residual = 8.23616e-13, No Iterations 75
GAMG:  Solving for p, Initial residual = 0.0225845, Final residual = 6.31449e-13, No Iterations 36
time step continuity errors : sum local = 3.44997e-13, global = -1.06267e-14, cumulative = 2.53001e-13
smoothSolver:  Solving for omega, Initial residual = 0.00357949, Final residual = 9.28965e-13, No Iterations 70
smoothSolver:  Solving for k, Initial residual = 0.0254418, Final residual = 8.6819e-13, No Iterations 82
ExecutionTime = 20.64 s  ClockTime = 21 s

forceCoeffs forceCoeffs write:
    Coefficient	Total	Pressure	Viscous	Internal
    Cd:	3.88645	3.78465	0.101804	0
    Cd(f):	1.87096	1.82047	0.0504955	0
    Cd(r):	2.01548	1.96418	0.0513087	0
    Cl:	0.14452	0.143707	0.000813232	0
    Cl(f):	0.0728326	0.0718534	0.000979181	0
    Cl(r):	0.0716874	0.0718534	-0.000165949	0
    CmPitch:	0.000572565	3.24927e-12	0.000572565	0
    CmRoll:	-0.07226	-0.0718534	-0.000406616	0
    CmYaw:	1.94322	1.89232	0.0509021	0
    Cs:	-1.17735e-19	-8.92063e-20	-2.85289e-20	0
    Cs(f):	1.94322	1.89232	0.0509021	0
    Cs(r):	-1.94322	-1.89232	-0.0509021	0

    writing force and moment coefficient files.

Time = 23

smoothSolver:  Solving for Ux, Initial residual = 0.0130644, Final residual = 8.05561e-13, No Iterations 76
smoothSolver:  Solving for Uy, Initial residual = 0.0194087, Final residual = 7.96322e-13, No Iterations 75
GAMG:  Solving for p, Initial residual = 0.0215706, Final residual = 8.94991e-13, No Iterations 35
time step continuity errors : sum local = 4.87179e-13, global = -1.38761e-14, cumulative = 2.39124e-13
smoothSolver:  Solving for omega, Initial residual = 0.00350941, Final residual = 9.27148e-13, No Iterations 70
smoothSolver:  Solving for k, Initial residual = 0.0243391, Final residual = 8.45096e-13, No Iterations 82
ExecutionTime = 21.4 s  ClockTime = 21 s

forceCoeffs forceCoeffs write:
    Coefficient	Total	Pressure	Viscous	Internal
    Cd:	3.97632	3.8741	0.10222	0
    Cd(f):	1.91417	1.86356	0.0506062	0
    Cd(r):	2.06215	2.01053	0.0516135	0
    Cl:	0.147974	0.146967	0.00100722	0
    Cl(f):	0.0745328	0.0734835	0.00104935	0
    Cl(r):	0.0734413	0.0734835	-4.21252e-05	0
    CmPitch:	0.000545736	2.61646e-12	0.000545736	0
    CmRoll:	-0.0739871	-0.0734835	-0.00050361	0
    CmYaw:	1.98816	1.93705	0.0511099	0
    Cs:	-1.16874e-19	-9.09701e-20	-2.59039e-20	0
    Cs(f):	1.98816	1.93705	0.0511099	0
    Cs(r):	-1.98816	-1.93705	-0.0511099	0

    writing force and moment coefficient files.

Time = 24

smoothSolver:  Solving for Ux, Initial residual = 0.0125551, Final residual = 7.78929e-13, No Iterations 76
smoothSolver:  Solving for Uy, Initial residual = 0.0186057, Final residual = 7.70992e-13, No Iterations 75
GAMG:  Solving for p, Initial residual = 0.020664, Final residual = 8.55842e-13, No Iterations 36
time step continuity errors : sum local = 4.65526e-13, global = -1.10928e-14, cumulative = 2.28032e-13
smoothSolver:  Solving for omega, Initial residual = 0.00337571, Final residual = 9.20387e-13, No Iterations 70
smoothSolver:  Solving for k, Initial residual = 0.0233183, Final residual = 8.2216e-13, No Iterations 82
ExecutionTime = 22.18 s  ClockTime = 22 s

forceCoeffs forceCoeffs write:
    Coefficient	Total	Pressure	Viscous	Internal
    Cd:	4.06323	3.96057	0.102665	0
    Cd(f):	1.95605	1.90527	0.0507794	0
    Cd(r):	2.10718	2.05529	0.051886	0
    Cl:	0.151129	0.150023	0.00110651	0
    Cl(f):	0.0760531	0.0750113	0.00104175	0
    Cl(r):	0.0750761	0.0750113	6.47617e-05	0
    CmPitch:	0.000488494	1.8505e-12	0.000488494	0
    CmRoll:	-0.0755646	-0.0750113	-0.000553256	0
    CmYaw:	2.03162	1.98028	0.0513327	0
    Cs:	-1.21946e-19	-9.26021e-20	-2.93442e-20	0
    Cs(f):	2.03162	1.98028	0.0513327	0
    Cs(r):	-2.03162	-1.98028	-0.0513327	0

    writing force and moment coefficient files.

Time = 25

smoothSolver:  Solving for Ux, Initial residual = 0.012079, Final residual = 7.54139e-13, No Iterations 76
smoothSolver:  Solving for Uy, Initial residual = 0.0178538, Final residual = 7.4774e-13, No Iterations 75
GAMG:  Solving for p, Initial residual = 0.0198187, Final residual = 8.89789e-13, No Iterations 36
time step continuity errors : sum local = 4.83833e-13, global = -1.13542e-14, cumulative = 2.16678e-13
smoothSolver:  Solving for omega, Initial residual = 0.00331627, Final residual = 9.1636e-13, No Iterations 70
smoothSolver:  Solving for k, Initial residual = 0.0223708, Final residual = 7.99354e-13, No Iterations 82
ExecutionTime = 22.98 s  ClockTime = 23 s

forceCoeffs forceCoeffs write:
    Coefficient	Total	Pressure	Viscous	Internal
    Cd:	4.14917	4.04622	0.102945	0
    Cd(f):	1.99781	1.94695	0.0508583	0
    Cd(r):	2.15136	2.09927	0.0520866	0
    Cl:	0.153553	0.152325	0.00122838	0
    Cl(f):	0.0771824	0.0761623	0.00102016	0
    Cl(r):	0.0763705	0.0761623	0.000208215	0
    CmPitch:	0.000405973	9.9768e-13	0.000405973	0
    CmRoll:	-0.0767765	-0.0761623	-0.000614188	0
    CmYaw:	2.07458	2.02311	0.0514725	0
    Cs:	-1.2674e-19	-9.41985e-20	-3.25419e-20	0
    Cs(f):	2.07458	2.02311	0.0514725	0
    Cs(r):	-2.07458	-2.02311	-0.0514725	0

    writing force and moment coefficient files.

Time = 26

smoothSolver:  Solving for Ux, Initial residual = 0.0116326, Final residual = 9.86443e-13, No Iterations 75
smoothSolver:  Solving for Uy, Initial residual = 0.0171547, Final residual = 9.80919e-13, No Iterations 74
GAMG:  Solving for p, Initial residual = 0.0190343, Final residual = 8.71864e-13, No Iterations 36
time step continuity errors : sum local = 4.73539e-13, global = -1.09497e-14, cumulative = 2.05728e-13
smoothSolver:  Solving for omega, Initial residual = 0.00318766, Final residual = 9.05635e-13, No Iterations 70
smoothSolver:  Solving for k, Initial residual = 0.0214891, Final residual = 7.76127e-13, No Iterations 82
ExecutionTime = 23.81 s  ClockTime = 24 s

forceCoeffs forceCoeffs write:
    Coefficient	Total	Pressure	Viscous	Internal
    Cd:	4.2347	4.13145	0.103248	0
    Cd(f):	2.03996	1.98906	0.050902	0
    Cd(r):	2.19474	2.1424	0.0523461	0
    Cl:	0.154784	0.15334	0.00144409	0
    Cl(f):	0.0776753	0.07667	0.00100528	0
    Cl(r):	0.0771088	0.07667	0.000438809	0
    CmPitch:	0.000283234	1.2715e-13	0.000283234	0
    CmRoll:	-0.077392	-0.07667	-0.000722044	0
    CmYaw:	2.11735	2.06573	0.051624	0
    Cs:	-1.28815e-19	-9.58231e-20	-3.29923e-20	0
    Cs(f):	2.11735	2.06573	0.051624	0
    Cs(r):	-2.11735	-2.06573	-0.051624	0

    writing force and moment coefficient files.

Time = 27

smoothSolver:  Solving for Ux, Initial residual = 0.0112135, Final residual = 9.5712e-13, No Iterations 75
smoothSolver:  Solving for Uy, Initial residual = 0.0165046, Final residual = 9.54928e-13, No Iterations 74
GAMG:  Solving for p, Initial residual = 0.0181947, Final residual = 8.47549e-13, No Iterations 36
time step continuity errors : sum local = 4.58777e-13, global = -1.04906e-14, cumulative = 1.95237e-13
smoothSolver:  Solving for omega, Initial residual = 0.00308011, Final residual = 8.93481e-13, No Iterations 70
smoothSolver:  Solving for k, Initial residual = 0.0206688, Final residual = 7.53869e-13, No Iterations 82
ExecutionTime = 24.59 s  ClockTime = 25 s

forceCoeffs forceCoeffs write:
    Coefficient	Total	Pressure	Viscous	Internal
    Cd:	4.31959	4.2159	0.103685	0
    Cd(f):	2.08302	2.03198	0.0510397	0
    Cd(r):	2.23657	2.18392	0.0526452	0
    Cl:	0.153549	0.151943	0.0016055	0
    Cl(f):	0.0769727	0.0759717	0.00100107	0
    Cl(r):	0.0765761	0.0759717	0.000604434	0
    CmPitch:	0.000198317	-6.53479e-13	0.000198317	0
    CmRoll:	-0.0767744	-0.0759717	-0.00080275	0
    CmYaw:	2.15979	2.10795	0.0518424	0
    Cs:	-1.298e-19	-9.7479e-20	-3.23212e-20	0
    Cs(f):	2.15979	2.10795	0.0518424	0
    Cs(r):	-2.15979	-2.10795	-0.0518424	0

    writing force and moment coefficient files.

Time = 28

smoothSolver:  Solving for Ux, Initial residual = 0.0108212, Final residual = 9.29601e-13, No Iterations 75
smoothSolver:  Solving for Uy, Initial residual = 0.015897, Final residual = 9.3123e-13, No Iterations 74
GAMG:  Solving for p, Initial residual = 0.0173914, Final residual = 8.30778e-13, No Iterations 36
time step continuity errors : sum local = 4.48336e-13, global = -1.0184e-14, cumulative = 1.85053e-13
smoothSolver:  Solving for omega, Initial residual = 0.00296076, Final residual = 8.7633e-13, No Iterations 70
smoothSolver:  Solving for k, Initial residual = 0.0199031, Final residual = 9.79371e-13, No Iterations 81
ExecutionTime = 25.37 s  ClockTime = 25 s

forceCoeffs forceCoeffs write:
    Coefficient	Total	Pressure	Viscous	Internal
    Cd:	4.40238	4.29819	0.104195	0
    Cd(f):	2.12591	2.07466	0.0512442	0
    Cd(r):	2.27647	2.22352	0.0529508	0
    Cl:	0.150568	0.148861	0.00170667	0
    Cl(f):	0.0754346	0.0744306	0.00100407	0
    Cl(r):	0.0751332	0.0744306	0.000702596	0
    CmPitch:	0.000150738	-1.2808e-12	0.000150738	0
    CmRoll:	-0.0752839	-0.0744306	-0.000853334	0
    CmYaw:	2.20119	2.14909	0.0520975	0
    Cs:	-1.28473e-19	-9.91321e-20	-2.93413e-20	0
    Cs(f):	2.20119	2.14909	0.0520975	0
    Cs(r):	-2.20119	-2.14909	-0.0520975	0

    writing force and moment coefficient files.

Time = 29

smoothSolver:  Solving for Ux, Initial residual = 0.0104518, Final residual = 9.03832e-13, No Iterations 75
smoothSolver:  Solving for Uy, Initial residual = 0.015328, Final residual = 9.09602e-13, No Iterations 74
GAMG:  Solving for p, Initial residual = 0.016621, Final residual = 7.98065e-13, No Iterations 36
time step continuity errors : sum local = 4.29781e-13, global = -9.79872e-15, cumulative = 1.75255e-13
smoothSolver:  Solving for omega, Initial residual = 0.00286951, Final residual = 8.62235e-13, No Iterations 70
smoothSolver:  Solving for k, Initial residual = 0.0191883, Final residual = 9.49936e-13, No Iterations 81
ExecutionTime = 26.16 s  ClockTime = 26 s

forceCoeffs forceCoeffs write:
    Coefficient	Total	Pressure	Viscous	Internal
    Cd:	4.48272	4.37793	0.104793	0
    Cd(f):	2.1682	2.11668	0.0515246	0
    Cd(r):	2.31452	2.26125	0.0532686	0
    Cl:	0.146318	0.144574	0.00174395	0
    Cl(f):	0.0732786	0.0722869	0.000991611	0
    Cl(r):	0.0730393	0.0722869	0.000752336	0
    CmPitch:	0.000119637	-1.72833e-12	0.000119637	0
    CmRoll:	-0.0731589	-0.0722869	-0.000871973	0
    CmYaw:	2.24136	2.18896	0.0523966	0
    Cs:	-1.28561e-19	-1.0075e-19	-2.78103e-20	0
    Cs(f):	2.24136	2.18896	0.0523966	0
    Cs(r):	-2.24136	-2.18896	-0.0523966	0

    writing force and moment coefficient files.

Time = 30

smoothSolver:  Solving for Ux, Initial residual = 0.010104, Final residual = 8.79637e-13, No Iterations 75
smoothSolver:  Solving for Uy, Initial residual = 0.0147991, Final residual = 8.89605e-13, No Iterations 74
GAMG:  Solving for p, Initial residual = 0.0158911, Final residual = 7.47942e-13, No Iterations 36
time step continuity errors : sum local = 4.01789e-13, global = -9.24692e-15, cumulative = 1.66008e-13
smoothSolver:  Solving for omega, Initial residual = 0.00280021, Final residual = 8.47795e-13, No Iterations 70
smoothSolver:  Solving for k, Initial residual = 0.0185188, Final residual = 9.21725e-13, No Iterations 81
ExecutionTime = 26.94 s  ClockTime = 27 s

forceCoeffs forceCoeffs write:
    Coefficient	Total	Pressure	Viscous	Internal
    Cd:	4.55999	4.45448	0.105503	0
    Cd(f):	2.20954	2.15767	0.0518718	0
    Cd(r):	2.35045	2.29682	0.0536312	0
    Cl:	0.140907	0.139148	0.00175935	0
    Cl(f):	0.070548	0.0695741	0.000973923	0
    Cl(r):	0.0703595	0.0695741	0.000785427	0
    CmPitch:	9.42477e-05	-2.0091e-12	9.42477e-05	0
    CmRoll:	-0.0704537	-0.0695741	-0.000879675	0
    CmYaw:	2.27999	2.22724	0.0527515	0
    Cs:	-1.29458e-19	-1.02341e-19	-2.7117e-20	0
    Cs(f):	2.27999	2.22724	0.0527515	0
    Cs(r):	-2.27999	-2.22724	-0.0527515	0

    writing force and moment coefficient files.

Time = 31

smoothSolver:  Solving for Ux, Initial residual = 0.00977723, Final residual = 8.56843e-13, No Iterations 75
smoothSolver:  Solving for Uy, Initial residual = 0.0143034, Final residual = 8.7071e-13, No Iterations 74
GAMG:  Solving for p, Initial residual = 0.0152017, Final residual = 7.13206e-13, No Iterations 36
time step continuity errors : sum local = 3.82664e-13, global = -8.99831e-15, cumulative = 1.57009e-13
smoothSolver:  Solving for omega, Initial residual = 0.00275236, Final residual = 8.33874e-13, No Iterations 70
smoothSolver:  Solving for k, Initial residual = 0.0178912, Final residual = 8.94284e-13, No Iterations 81
ExecutionTime = 27.95 s  ClockTime = 28 s

forceCoeffs forceCoeffs write:
    Coefficient	Total	Pressure	Viscous	Internal
    Cd:	4.63177	4.52546	0.106314	0
    Cd(f):	2.24884	2.19656	0.0522801	0
    Cd(r):	2.38293	2.3289	0.0540335	0
    Cl:	0.134093	0.13234	0.00175332	0
    Cl(f):	0.0671159	0.0661699	0.000945983	0
    Cl(r):	0.0669773	0.0661699	0.000807338	0
    CmPitch:	6.93226e-05	-2.12653e-12	6.93226e-05	0
    CmRoll:	-0.0670466	-0.0661699	-0.000876661	0
    CmYaw:	2.31589	2.26273	0.0531568	0
    Cs:	-1.31061e-19	-1.03906e-19	-2.71549e-20	0
    Cs(f):	2.31589	2.26273	0.0531568	0
    Cs(r):	-2.31589	-2.26273	-0.0531568	0

    writing force and moment coefficient files.

Time = 32

smoothSolver:  Solving for Ux, Initial residual = 0.00946971, Final residual = 8.35464e-13, No Iterations 75
smoothSolver:  Solving for Uy, Initial residual = 0.013835, Final residual = 8.52598e-13, No Iterations 74
GAMG:  Solving for p, Initial residual = 0.0145734, Final residual = 9.78899e-13, No Iterations 35
time step continuity errors : sum local = 5.24784e-13, global = -1.53118e-14, cumulative = 1.41698e-13
smoothSolver:  Solving for omega, Initial residual = 0.00268732, Final residual = 8.2104e-13, No Iterations 70
smoothSolver:  Solving for k, Initial residual = 0.0173021, Final residual = 8.68266e-13, No Iterations 81
ExecutionTime = 28.97 s  ClockTime = 29 s

forceCoeffs forceCoeffs write:
    Coefficient	Total	Pressure	Viscous	Internal
    Cd:	4.69733	4.59014	0.107188	0
    Cd(f):	2.28575	2.23301	0.052735	0
    Cd(r):	2.41158	2.35713	0.0544526	0
    Cl:	0.125837	0.124119	0.00171763	0
    Cl(f):	0.062976	0.0620597	0.000916327	0
    Cl(r):	0.062861	0.0620597	0.000801304	0
    CmPitch:	5.75117e-05	-2.07547e-12	5.75117e-05	0
    CmRoll:	-0.0629185	-0.0620597	-0.000858815	0
    CmYaw:	2.34867	2.29507	0.0535938	0
    Cs:	-1.33356e-19	-1.05458e-19	-2.78984e-20	0
    Cs(f):	2.34867	2.29507	0.0535938	0
    Cs(r):	-2.34867	-2.29507	-0.0535938	0

    writing force and moment coefficient files.

Time = 33

smoothSolver:  Solving for Ux, Initial residual = 0.00918031, Final residual = 8.15533e-13, No Iterations 75
smoothSolver:  Solving for Uy, Initial residual = 0.0133914, Final residual = 8.35383e-13, No Iterations 74
GAMG:  Solving for p, Initial residual = 0.0140015, Final residual = 9.937e-13, No Iterations 35
time step continuity errors : sum local = 5.32833e-13, global = -1.58365e-14, cumulative = 1.25861e-13
smoothSolver:  Solving for omega, Initial residual = 0.00260788, Final residual = 8.10721e-13, No Iterations 70
smoothSolver:  Solving for k, Initial residual = 0.0167481, Final residual = 8.43328e-13, No Iterations 81
ExecutionTime = 29.89 s  ClockTime = 30 s

forceCoeffs forceCoeffs write:
    Coefficient	Total	Pressure	Viscous	Internal
    Cd:	4.75696	4.64884	0.108116	0
    Cd(f):	2.31984	2.26661	0.0532366	0
    Cd(r):	2.43712	2.38224	0.0548797	0
    Cl:	0.117275	0.115632	0.00164313	0
    Cl(f):	0.0587058	0.057816	0.000889799	0
    Cl(r):	0.0585693	0.057816	0.000753327	0
    CmPitch:	6.82361e-05	-1.9146e-12	6.82361e-05	0
    CmRoll:	-0.0586375	-0.057816	-0.000821563	0
    CmYaw:	2.37848	2.32442	0.0540582	0
    Cs:	-1.35905e-19	-1.06976e-19	-2.89291e-20	0
    Cs(f):	2.37848	2.32442	0.0540582	0
    Cs(r):	-2.37848	-2.32442	-0.0540582	0

    writing force and moment coefficient files.

Time = 34

smoothSolver:  Solving for Ux, Initial residual = 0.00890739, Final residual = 7.96693e-13, No Iterations 75
smoothSolver:  Solving for Uy, Initial residual = 0.0129717, Final residual = 8.18919e-13, No Iterations 74
GAMG:  Solving for p, Initial residual = 0.0134969, Final residual = 7.13702e-13, No Iterations 36
time step continuity errors : sum local = 3.83028e-13, global = -9.50644e-15, cumulative = 1.16355e-13
smoothSolver:  Solving for omega, Initial residual = 0.00251294, Final residual = 8.02326e-13, No Iterations 70
smoothSolver:  Solving for k, Initial residual = 0.0162262, Final residual = 8.19193e-13, No Iterations 81
ExecutionTime = 30.82 s  ClockTime = 31 s

forceCoeffs forceCoeffs write:
    Coefficient	Total	Pressure	Viscous	Internal
    Cd:	4.81103	4.70199	0.109041	0
    Cd(f):	2.35066	2.2969	0.0537567	0
    Cd(r):	2.46037	2.40509	0.0552843	0
    Cl:	0.109716	0.108189	0.00152757	0
    Cl(f):	0.0549624	0.0540943	0.000868075	0
    Cl(r):	0.0547538	0.0540943	0.000659499	0
    CmPitch:	0.000104288	-1.70271e-12	0.000104288	0
    CmRoll:	-0.0548581	-0.0540943	-0.000763787	0
    CmYaw:	2.40552	2.351	0.0545205	0
    Cs:	-1.38835e-19	-1.08442e-19	-3.03935e-20	0
    Cs(f):	2.40552	2.351	0.0545205	0
    Cs(r):	-2.40552	-2.351	-0.0545205	0

    writing force and moment coefficient files.

Time = 35

smoothSolver:  Solving for Ux, Initial residual = 0.00864952, Final residual = 7.78848e-13, No Iterations 75
smoothSolver:  Solving for Uy, Initial residual = 0.0125749, Final residual = 8.03507e-13, No Iterations 74
GAMG:  Solving for p, Initial residual = 0.0130135, Final residual = 9.88973e-13, No Iterations 35
time step continuity errors : sum local = 5.31214e-13, global = -1.57259e-14, cumulative = 1.00629e-13
smoothSolver:  Solving for omega, Initial residual = 0.00241765, Final residual = 7.92261e-13, No Iterations 70
smoothSolver:  Solving for k, Initial residual = 0.0157345, Final residual = 7.96332e-13, No Iterations 81
ExecutionTime = 31.63 s  ClockTime = 32 s

forceCoeffs forceCoeffs write:
    Coefficient	Total	Pressure	Viscous	Internal
    Cd:	4.86091	4.75101	0.109909	0
    Cd(f):	2.37845	2.32419	0.054266	0
    Cd(r):	2.48246	2.42682	0.0556428	0
    Cl:	0.104007	0.10263	0.00137679	0
    Cl(f):	0.052164	0.0513149	0.000849034	0
    Cl(r):	0.0518427	0.0513149	0.000527751	0
    CmPitch:	0.000160642	-1.50138e-12	0.000160642	0
    CmRoll:	-0.0520033	-0.0513149	-0.000688393	0
    CmYaw:	2.43046	2.3755	0.0549544	0
    Cs:	-1.41122e-19	-1.0985e-19	-3.12712e-20	0
    Cs(f):	2.43046	2.3755	0.0549544	0
    Cs(r):	-2.43046	-2.3755	-0.0549544	0

    writing force and moment coefficient files.

Time = 36

smoothSolver:  Solving for Ux, Initial residual = 0.00840535, Final residual = 7.61913e-13, No Iterations 75
smoothSolver:  Solving for Uy, Initial residual = 0.0121993, Final residual = 7.88944e-13, No Iterations 74
GAMG:  Solving for p, Initial residual = 0.0125309, Final residual = 8.63707e-13, No Iterations 35
time step continuity errors : sum local = 4.64293e-13, global = -1.28996e-14, cumulative = 8.77291e-14
smoothSolver:  Solving for omega, Initial residual = 0.00229689, Final residual = 7.8007e-13, No Iterations 70
smoothSolver:  Solving for k, Initial residual = 0.0152697, Final residual = 7.7427e-13, No Iterations 81
ExecutionTime = 32.44 s  ClockTime = 32 s

forceCoeffs forceCoeffs write:
    Coefficient	Total	Pressure	Viscous	Internal
    Cd:	4.90798	4.79731	0.110675	0
    Cd(f):	2.40419	2.34945	0.0547332	0
    Cd(r):	2.5038	2.44786	0.0559423	0
    Cl:	0.0996131	0.098404	0.00120913	0
    Cl(f):	0.0500294	0.049202	0.000827442	0
    Cl(r):	0.0495837	0.049202	0.00038169	0
    CmPitch:	0.000222876	-1.34402e-12	0.000222876	0
    CmRoll:	-0.0498065	-0.049202	-0.000604566	0
    CmYaw:	2.45399	2.39865	0.0553377	0
    Cs:	-1.42583e-19	-1.11248e-19	-3.1335e-20	0
    Cs(f):	2.45399	2.39865	0.0553377	0
    Cs(r):	-2.45399	-2.39865	-0.0553377	0

    writing force and moment coefficient files.

Time = 37

smoothSolver:  Solving for Ux, Initial residual = 0.00817412, Final residual = 7.45843e-13, No Iterations 75
smoothSolver:  Solving for Uy, Initial residual = 0.0118436, Final residual = 7.75514e-13, No Iterations 74
GAMG:  Solving for p, Initial residual = 0.0120634, Final residual = 6.96034e-13, No Iterations 35
time step continuity errors : sum local = 3.74369e-13, global = -8.33369e-15, cumulative = 7.93954e-14
smoothSolver:  Solving for omega, Initial residual = 0.00222595, Final residual = 7.68214e-13, No Iterations 70
smoothSolver:  Solving for k, Initial residual = 0.0148294, Final residual = 7.52366e-13, No Iterations 81
ExecutionTime = 33.22 s  ClockTime = 33 s

forceCoeffs forceCoeffs write:
    Coefficient	Total	Pressure	Viscous	Internal
    Cd:	4.95358	4.84223	0.111354	0
    Cd(f):	2.42895	2.3738	0.0551514	0
    Cd(r):	2.52463	2.46843	0.0562023	0
    Cl:	0.0956743	0.0946234	0.00105087	0
    Cl(f):	0.0481149	0.0473117	0.000803167	0
    Cl(r):	0.0475594	0.0473117	0.000247707	0
    CmPitch:	0.00027773	-1.2383e-12	0.00027773	0
    CmRoll:	-0.0478371	-0.0473117	-0.000525437	0
    CmYaw:	2.47679	2.42111	0.0556768	0
    Cs:	-1.44577e-19	-1.12663e-19	-3.19137e-20	0
    Cs(f):	2.47679	2.42111	0.0556768	0
    Cs(r):	-2.47679	-2.42111	-0.0556768	0

    writing force and moment coefficient files.

Time = 38

smoothSolver:  Solving for Ux, Initial residual = 0.00795486, Final residual = 9.85691e-13, No Iterations 74
smoothSolver:  Solving for Uy, Initial residual = 0.0115079, Final residual = 7.63222e-13, No Iterations 74
GAMG:  Solving for p, Initial residual = 0.011625, Final residual = 9.39635e-13, No Iterations 35
time step continuity errors : sum local = 5.05623e-13, global = -1.17984e-14, cumulative = 6.7597e-14
smoothSolver:  Solving for omega, Initial residual = 0.00214913, Final residual = 7.54303e-13, No Iterations 70
smoothSolver:  Solving for k, Initial residual = 0.014413, Final residual = 9.79362e-13, No Iterations 80
ExecutionTime = 34 s  ClockTime = 34 s

forceCoeffs forceCoeffs write:
    Coefficient	Total	Pressure	Viscous	Internal
    Cd:	4.99908	4.8871	0.111978	0
    Cd(f):	2.45339	2.39786	0.0555294	0
    Cd(r):	2.54568	2.48923	0.0564482	0
    Cl:	0.0922881	0.0913693	0.00091884	0
    Cl(f):	0.0464592	0.0456847	0.000774508	0
    Cl(r):	0.045829	0.0456847	0.000144332	0
    CmPitch:	0.000315088	-1.1898e-12	0.000315088	0
    CmRoll:	-0.0461441	-0.0456847	-0.00045942	0
    CmYaw:	2.49954	2.44355	0.0559888	0
    Cs:	-1.46333e-19	-1.14087e-19	-3.22457e-20	0
    Cs(f):	2.49954	2.44355	0.0559888	0
    Cs(r):	-2.49954	-2.44355	-0.0559888	0

    writing force and moment coefficient files.

Time = 39

smoothSolver:  Solving for Ux, Initial residual = 0.00774669, Final residual = 9.65726e-13, No Iterations 74
smoothSolver:  Solving for Uy, Initial residual = 0.0111908, Final residual = 7.51978e-13, No Iterations 74
GAMG:  Solving for p, Initial residual = 0.0112097, Final residual = 6.08388e-13, No Iterations 36
time step continuity errors : sum local = 3.27534e-13, global = -1.00343e-14, cumulative = 5.75627e-14
smoothSolver:  Solving for omega, Initial residual = 0.0020762, Final residual = 9.97998e-13, No Iterations 69
smoothSolver:  Solving for k, Initial residual = 0.0140184, Final residual = 9.53383e-13, No Iterations 80
ExecutionTime = 34.77 s  ClockTime = 35 s

forceCoeffs forceCoeffs write:
    Coefficient	Total	Pressure	Viscous	Internal
    Cd:	5.0453	4.93272	0.112583	0
    Cd(f):	2.47797	2.42209	0.0558786	0
    Cd(r):	2.56733	2.51063	0.056704	0
    Cl:	0.0893612	0.0885357	0.000825424	0
    Cl(f):	0.0450114	0.0442679	0.000743537	0
    Cl(r):	0.0443498	0.0442679	8.18872e-05	0
    CmPitch:	0.000330825	-1.18637e-12	0.000330825	0
    CmRoll:	-0.0446806	-0.0442679	-0.000412712	0
    CmYaw:	2.52265	2.46636	0.0562913	0
    Cs:	-1.48271e-19	-1.15508e-19	-3.27632e-20	0
    Cs(f):	2.52265	2.46636	0.0562913	0
    Cs(r):	-2.52265	-2.46636	-0.0562913	0

    writing force and moment coefficient files.

Time = 40

smoothSolver:  Solving for Ux, Initial residual = 0.00754861, Final residual = 9.46664e-13, No Iterations 74
smoothSolver:  Solving for Uy, Initial residual = 0.0108899, Final residual = 7.4182e-13, No Iterations 74
GAMG:  Solving for p, Initial residual = 0.0108156, Final residual = 6.41409e-13, No Iterations 36
time step continuity errors : sum local = 3.45453e-13, global = -1.07628e-14, cumulative = 4.67999e-14
smoothSolver:  Solving for omega, Initial residual = 0.00200217, Final residual = 9.80959e-13, No Iterations 69
smoothSolver:  Solving for k, Initial residual = 0.0136439, Final residual = 9.2841e-13, No Iterations 80
ExecutionTime = 35.54 s  ClockTime = 35 s

forceCoeffs forceCoeffs write:
    Coefficient	Total	Pressure	Viscous	Internal
    Cd:	5.09277	4.97956	0.113205	0
    Cd(f):	2.50311	2.4469	0.0562145	0
    Cd(r):	2.58966	2.53267	0.0569902	0
    Cl:	0.086546	0.0857702	0.000775769	0
    Cl(f):	0.043602	0.0428851	0.00071688	0
    Cl(r):	0.042944	0.0428851	5.88885e-05	0
    CmPitch:	0.000328996	-1.21074e-12	0.000328996	0
    CmRoll:	-0.043273	-0.0428851	-0.000387884	0
    CmYaw:	2.54638	2.48978	0.0566023	0
    Cs:	-1.49663e-19	-1.16921e-19	-3.27425e-20	0
    Cs(f):	2.54638	2.48978	0.0566023	0
    Cs(r):	-2.54638	-2.48978	-0.0566023	0

    writing force and moment coefficient files.

Time = 41

smoothSolver:  Solving for Ux, Initial residual = 0.00736022, Final residual = 9.28442e-13, No Iterations 74
smoothSolver:  Solving for Uy, Initial residual = 0.0106054, Final residual = 9.89458e-13, No Iterations 73
GAMG:  Solving for p, Initial residual = 0.0104462, Final residual = 6.13792e-13, No Iterations 36
time step continuity errors : sum local = 3.30702e-13, global = -1.03099e-14, cumulative = 3.64899e-14
smoothSolver:  Solving for omega, Initial residual = 0.00193349, Final residual = 9.6202e-13, No Iterations 69
smoothSolver:  Solving for k, Initial residual = 0.0132875, Final residual = 9.04422e-13, No Iterations 80
ExecutionTime = 36.3 s  ClockTime = 36 s

forceCoeffs forceCoeffs write:
    Coefficient	Total	Pressure	Viscous	Internal
    Cd:	5.14151	5.02765	0.113858	0
    Cd(f):	2.52897	2.47242	0.0565519	0
    Cd(r):	2.61253	2.55522	0.0573064	0
    Cl:	0.0835573	0.0828028	0.000754482	0
    Cl(f):	0.0420944	0.0414014	0.000693002	0
    Cl(r):	0.0414629	0.0414014	6.14804e-05	0
    CmPitch:	0.000315761	-1.23262e-12	0.000315761	0
    CmRoll:	-0.0417787	-0.0414014	-0.000377241	0
    CmYaw:	2.57075	2.51382	0.0569291	0
    Cs:	-1.50976e-19	-1.18313e-19	-3.26638e-20	0
    Cs(f):	2.57075	2.51382	0.0569291	0
    Cs(r):	-2.57075	-2.51382	-0.0569291	0

    writing force and moment coefficient files.

Time = 42

smoothSolver:  Solving for Ux, Initial residual = 0.00718067, Final residual = 9.10706e-13, No Iterations 74
smoothSolver:  Solving for Uy, Initial residual = 0.0103364, Final residual = 9.78282e-13, No Iterations 73
GAMG:  Solving for p, Initial residual = 0.0100948, Final residual = 5.48002e-13, No Iterations 36
time step continuity errors : sum local = 2.95279e-13, global = -9.12401e-15, cumulative = 2.73659e-14
smoothSolver:  Solving for omega, Initial residual = 0.00187179, Final residual = 9.44255e-13, No Iterations 69
smoothSolver:  Solving for k, Initial residual = 0.0129487, Final residual = 8.81457e-13, No Iterations 80
ExecutionTime = 37.16 s  ClockTime = 37 s

forceCoeffs forceCoeffs write:
    Coefficient	Total	Pressure	Viscous	Internal
    Cd:	5.19138	5.07684	0.114541	0
    Cd(f):	2.55571	2.49882	0.0568981	0
    Cd(r):	2.63567	2.57802	0.0576429	0
    Cl:	0.0799537	0.0792089	0.000744754	0
    Cl(f):	0.0402745	0.0396045	0.000670089	0
    Cl(r):	0.0396791	0.0396045	7.46652e-05	0
    CmPitch:	0.000297712	-1.22953e-12	0.000297712	0
    CmRoll:	-0.0399768	-0.0396045	-0.000372377	0
    CmYaw:	2.59569	2.53842	0.0572705	0
    Cs:	-1.52688e-19	-1.19685e-19	-3.30029e-20	0
    Cs(f):	2.59569	2.53842	0.0572705	0
    Cs(r):	-2.59569	-2.53842	-0.0572705	0

    writing force and moment coefficient files.

Time = 43

smoothSolver:  Solving for Ux, Initial residual = 0.00700956, Final residual = 8.93567e-13, No Iterations 74
smoothSolver:  Solving for Uy, Initial residual = 0.0100825, Final residual = 9.68092e-13, No Iterations 73
GAMG:  Solving for p, Initial residual = 0.00976257, Final residual = 8.81023e-13, No Iterations 35
time step continuity errors : sum local = 4.74797e-13, global = -1.17482e-14, cumulative = 1.56177e-14
smoothSolver:  Solving for omega, Initial residual = 0.00182404, Final residual = 9.2758e-13, No Iterations 69
smoothSolver:  Solving for k, Initial residual = 0.0126263, Final residual = 8.59344e-13, No Iterations 80
ExecutionTime = 37.91 s  ClockTime = 38 s

forceCoeffs forceCoeffs write:
    Coefficient	Total	Pressure	Viscous	Internal
    Cd:	5.24175	5.1265	0.115249	0
    Cd(f):	2.58312	2.52586	0.0572599	0
    Cd(r):	2.65863	2.60064	0.0579895	0
    Cl:	0.0755125	0.0747829	0.000729625	0
    Cl(f):	0.0380381	0.0373914	0.000646644	0
    Cl(r):	0.0374744	0.0373914	8.29812e-05	0
    CmPitch:	0.000281831	-1.18895e-12	0.000281831	0
    CmRoll:	-0.0377563	-0.0373914	-0.000364812	0
    CmYaw:	2.62088	2.56325	0.0576247	0
    Cs:	-1.54283e-19	-1.21037e-19	-3.32457e-20	0
    Cs(f):	2.62088	2.56325	0.0576247	0
    Cs(r):	-2.62088	-2.56325	-0.0576247	0

    writing force and moment coefficient files.

Time = 44

smoothSolver:  Solving for Ux, Initial residual = 0.00684619, Final residual = 8.77163e-13, No Iterations 74
smoothSolver:  Solving for Uy, Initial residual = 0.00984188, Final residual = 9.58867e-13, No Iterations 73
GAMG:  Solving for p, Initial residual = 0.00944974, Final residual = 7.67828e-13, No Iterations 35
time step continuity errors : sum local = 4.13914e-13, global = -1.0164e-14, cumulative = 5.4537e-15
smoothSolver:  Solving for omega, Initial residual = 0.0017841, Final residual = 9.10775e-13, No Iterations 69
smoothSolver:  Solving for k, Initial residual = 0.0123193, Final residual = 8.38125e-13, No Iterations 80
ExecutionTime = 38.66 s  ClockTime = 39 s

forceCoeffs forceCoeffs write:
    Coefficient	Total	Pressure	Viscous	Internal
    Cd:	5.29205	5.17607	0.115978	0
    Cd(f):	2.61081	2.55318	0.0576389	0
    Cd(r):	2.68124	2.6229	0.0583388	0
    Cl:	0.0704215	0.0697216	0.000699879	0
    Cl(f):	0.0354822	0.0348608	0.000621424	0
    Cl(r):	0.0349392	0.0348608	7.84555e-05	0
    CmPitch:	0.000271484	-1.10592e-12	0.000271484	0
    CmRoll:	-0.0352107	-0.0348608	-0.00034994	0
    CmYaw:	2.64602	2.58804	0.0579888	0
    Cs:	-1.55758e-19	-1.22364e-19	-3.33936e-20	0
    Cs(f):	2.64602	2.58804	0.0579888	0
    Cs(r):	-2.64602	-2.58804	-0.0579888	0

    writing force and moment coefficient files.

Time = 45

smoothSolver:  Solving for Ux, Initial residual = 0.00669002, Final residual = 8.6141e-13, No Iterations 74
smoothSolver:  Solving for Uy, Initial residual = 0.00961324, Final residual = 9.5051e-13, No Iterations 73
GAMG:  Solving for p, Initial residual = 0.00915788, Final residual = 9.36304e-13, No Iterations 34
time step continuity errors : sum local = 5.04819e-13, global = -1.45989e-14, cumulative = -9.14515e-15
smoothSolver:  Solving for omega, Initial residual = 0.00174061, Final residual = 8.95065e-13, No Iterations 69
smoothSolver:  Solving for k, Initial residual = 0.012026, Final residual = 8.17763e-13, No Iterations 80
ExecutionTime = 39.41 s  ClockTime = 39 s

forceCoeffs forceCoeffs write:
    Coefficient	Total	Pressure	Viscous	Internal
    Cd:	5.34199	5.22527	0.116717	0
    Cd(f):	2.63852	2.58049	0.0580343	0
    Cd(r):	2.70347	2.64478	0.0586829	0
    Cl:	0.0649427	0.0642941	0.000648577	0
    Cl(f):	0.0327418	0.032147	0.00059475	0
    Cl(r):	0.0322009	0.032147	5.38268e-05	0
    CmPitch:	0.000270462	-9.91555e-13	0.000270462	0
    CmRoll:	-0.0324713	-0.032147	-0.000324289	0
    CmYaw:	2.671	2.61264	0.0583586	0
    Cs:	-1.57135e-19	-1.23669e-19	-3.34666e-20	0
    Cs(f):	2.671	2.61264	0.0583586	0
    Cs(r):	-2.671	-2.61264	-0.0583586	0

    writing force and moment coefficient files.

Time = 46

smoothSolver:  Solving for Ux, Initial residual = 0.00654047, Final residual = 8.4625e-13, No Iterations 74
smoothSolver:  Solving for Uy, Initial residual = 0.00939647, Final residual = 9.42963e-13, No Iterations 73
GAMG:  Solving for p, Initial residual = 0.00888499, Final residual = 7.9524e-13, No Iterations 34
time step continuity errors : sum local = 4.2889e-13, global = -1.19411e-14, cumulative = -2.10862e-14
smoothSolver:  Solving for omega, Initial residual = 0.00170881, Final residual = 8.79003e-13, No Iterations 69
smoothSolver:  Solving for k, Initial residual = 0.011746, Final residual = 7.98082e-13, No Iterations 80
ExecutionTime = 40.16 s  ClockTime = 40 s

forceCoeffs forceCoeffs write:
    Coefficient	Total	Pressure	Viscous	Internal
    Cd:	5.39136	5.2739	0.117463	0
    Cd(f):	2.66594	2.60749	0.0584437	0
    Cd(r):	2.72543	2.66641	0.0590195	0
    Cl:	0.0594929	0.0589172	0.000575721	0
    Cl(f):	0.0300255	0.0294586	0.000566927	0
    Cl(r):	0.0294674	0.0294586	8.79438e-06	0
    CmPitch:	0.000279066	-8.58777e-13	0.000279066	0
    CmRoll:	-0.0297465	-0.0294586	-0.000287861	0
    CmYaw:	2.69568	2.63695	0.0587316	0
    Cs:	-1.58427e-19	-1.24951e-19	-3.34758e-20	0
    Cs(f):	2.69568	2.63695	0.0587316	0
    Cs(r):	-2.69568	-2.63695	-0.0587316	0

    writing force and moment coefficient files.

Time = 47

smoothSolver:  Solving for Ux, Initial residual = 0.00639711, Final residual = 8.31347e-13, No Iterations 74
smoothSolver:  Solving for Uy, Initial residual = 0.00919027, Final residual = 9.36266e-13, No Iterations 73
GAMG:  Solving for p, Initial residual = 0.0086349, Final residual = 6.53681e-13, No Iterations 34
time step continuity errors : sum local = 3.52743e-13, global = -9.35414e-15, cumulative = -3.04404e-14
smoothSolver:  Solving for omega, Initial residual = 0.00166928, Final residual = 8.62646e-13, No Iterations 69
smoothSolver:  Solving for k, Initial residual = 0.011478, Final residual = 7.79274e-13, No Iterations 80
ExecutionTime = 40.95 s  ClockTime = 41 s

forceCoeffs forceCoeffs write:
    Coefficient	Total	Pressure	Viscous	Internal
    Cd:	5.44016	5.32195	0.118207	0
    Cd(f):	2.69282	2.63396	0.0588598	0
    Cd(r):	2.74734	2.68799	0.0593476	0
    Cl:	0.0545188	0.054031	0.000487825	0
    Cl(f):	0.0275543	0.0270155	0.000538871	0
    Cl(r):	0.0269644	0.0270155	-5.10459e-05	0
    CmPitch:	0.000294958	-7.26131e-13	0.000294958	0
    CmRoll:	-0.0272594	-0.0270155	-0.000243913	0
    CmYaw:	2.72008	2.66098	0.0591037	0
    Cs:	-1.59742e-19	-1.26212e-19	-3.35302e-20	0
    Cs(f):	2.72008	2.66098	0.0591037	0
    Cs(r):	-2.72008	-2.66098	-0.0591037	0

    writing force and moment coefficient files.

Time = 48

smoothSolver:  Solving for Ux, Initial residual = 0.00625949, Final residual = 8.16731e-13, No Iterations 74
smoothSolver:  Solving for Uy, Initial residual = 0.00899449, Final residual = 9.30079e-13, No Iterations 73
GAMG:  Solving for p, Initial residual = 0.00840723, Final residual = 5.47969e-13, No Iterations 34
time step continuity errors : sum local = 2.95815e-13, global = -7.24646e-15, cumulative = -3.76868e-14
smoothSolver:  Solving for omega, Initial residual = 0.00163372, Final residual = 8.45814e-13, No Iterations 69
smoothSolver:  Solving for k, Initial residual = 0.0112219, Final residual = 7.61348e-13, No Iterations 80
ExecutionTime = 41.84 s  ClockTime = 42 s

forceCoeffs forceCoeffs write:
    Coefficient	Total	Pressure	Viscous	Internal
    Cd:	5.48865	5.36971	0.118939	0
    Cd(f):	2.71931	2.66004	0.059273	0
    Cd(r):	2.76934	2.70967	0.0596664	0
    Cl:	0.0500318	0.0496383	0.000393409	0
    Cl(f):	0.0253298	0.0248192	0.000510627	0
    Cl(r):	0.024702	0.0248192	-0.000117218	0
    CmPitch:	0.000313922	-6.03048e-13	0.000313922	0
    CmRoll:	-0.0250159	-0.0248192	-0.000196705	0
    CmYaw:	2.74433	2.68486	0.0594697	0
    Cs:	-1.61694e-19	-1.27463e-19	-3.42313e-20	0
    Cs(f):	2.74433	2.68486	0.0594697	0
    Cs(r):	-2.74433	-2.68486	-0.0594697	0

    writing force and moment coefficient files.

Time = 49

smoothSolver:  Solving for Ux, Initial residual = 0.00612718, Final residual = 8.0251e-13, No Iterations 74
smoothSolver:  Solving for Uy, Initial residual = 0.00880777, Final residual = 9.24443e-13, No Iterations 73
GAMG:  Solving for p, Initial residual = 0.00819198, Final residual = 9.49972e-13, No Iterations 33
time step continuity errors : sum local = 5.12822e-13, global = -1.05893e-14, cumulative = -4.82761e-14
smoothSolver:  Solving for omega, Initial residual = 0.00159351, Final residual = 8.28716e-13, No Iterations 69
smoothSolver:  Solving for k, Initial residual = 0.0109766, Final residual = 9.95115e-13, No Iterations 79
ExecutionTime = 42.62 s  ClockTime = 43 s

forceCoeffs forceCoeffs write:
    Coefficient	Total	Pressure	Viscous	Internal
    Cd:	5.53711	5.41745	0.119658	0
    Cd(f):	2.74552	2.68584	0.0596783	0
    Cd(r):	2.79159	2.73161	0.0599798	0
    Cl:	0.0460753	0.0457738	0.000301498	0
    Cl(f):	0.0233693	0.0228869	0.000482355	0
    Cl(r):	0.022706	0.0228869	-0.000180858	0
    CmPitch:	0.000331607	-4.97773e-13	0.000331607	0
    CmRoll:	-0.0230376	-0.0228869	-0.000150749	0
    CmYaw:	2.76856	2.70873	0.0598291	0
    Cs:	-1.63389e-19	-1.28708e-19	-3.46812e-20	0
    Cs(f):	2.76856	2.70873	0.0598291	0
    Cs(r):	-2.76856	-2.70873	-0.0598291	0

    writing force and moment coefficient files.

Time = 50

smoothSolver:  Solving for Ux, Initial residual = 0.00599989, Final residual = 7.88636e-13, No Iterations 74
smoothSolver:  Solving for Uy, Initial residual = 0.00862881, Final residual = 9.19377e-13, No Iterations 73
GAMG:  Solving for p, Initial residual = 0.00798519, Final residual = 5.99792e-13, No Iterations 34
time step continuity errors : sum local = 3.23993e-13, global = -8.83268e-15, cumulative = -5.71088e-14
smoothSolver:  Solving for omega, Initial residual = 0.00156015, Final residual = 8.12361e-13, No Iterations 69
smoothSolver:  Solving for k, Initial residual = 0.010741, Final residual = 9.7272e-13, No Iterations 79
ExecutionTime = 43.43 s  ClockTime = 43 s

forceCoeffs forceCoeffs write:
    Coefficient	Total	Pressure	Viscous	Internal
    Cd:	5.58587	5.46551	0.120359	0
    Cd(f):	2.77173	2.71166	0.0600699	0
    Cd(r):	2.81414	2.75385	0.0602892	0
    Cl:	0.0424133	0.042194	0.000219289	0
    Cl(f):	0.0215506	0.021097	0.000453553	0
    Cl(r):	0.0208628	0.021097	-0.000234265	0
    CmPitch:	0.000343909	-4.10501e-13	0.000343909	0
    CmRoll:	-0.0212067	-0.021097	-0.000109644	0
    CmYaw:	2.79293	2.73275	0.0601796	0
    Cs:	-1.64796e-19	-1.29954e-19	-3.48425e-20	0
    Cs(f):	2.79293	2.73275	0.0601796	0
    Cs(r):	-2.79293	-2.73275	-0.0601796	0

    writing force and moment coefficient files.

Time = 51

smoothSolver:  Solving for Ux, Initial residual = 0.00587766, Final residual = 7.75267e-13, No Iterations 74
smoothSolver:  Solving for Uy, Initial residual = 0.00845748, Final residual = 9.14718e-13, No Iterations 73
GAMG:  Solving for p, Initial residual = 0.00778663, Final residual = 7.99097e-13, No Iterations 34
time step continuity errors : sum local = 4.31784e-13, global = -1.51533e-14, cumulative = -7.22621e-14
smoothSolver:  Solving for omega, Initial residual = 0.00152645, Final residual = 7.96784e-13, No Iterations 69
smoothSolver:  Solving for k, Initial residual = 0.0105153, Final residual = 9.51127e-13, No Iterations 79
ExecutionTime = 44.27 s  ClockTime = 44 s

forceCoeffs forceCoeffs write:
    Coefficient	Total	Pressure	Viscous	Internal
    Cd:	5.6353	5.51426	0.121044	0
    Cd(f):	2.79823	2.73778	0.0604464	0
    Cd(r):	2.83707	2.77648	0.0605979	0
    Cl:	0.0388473	0.0386958	0.000151487	0
    Cl(f):	0.0197736	0.0193479	0.000425738	0
    Cl(r):	0.0190736	0.0193479	-0.000274252	0
    CmPitch:	0.000349995	-3.37564e-13	0.000349995	0
    CmRoll:	-0.0194236	-0.0193479	-7.57433e-05	0
    CmYaw:	2.81765	2.75713	0.0605222	0
    Cs:	-1.66022e-19	-1.31205e-19	-3.48175e-20	0
    Cs(f):	2.81765	2.75713	0.0605222	0
    Cs(r):	-2.81765	-2.75713	-0.0605222	0

    writing force and moment coefficient files.

Time = 52

smoothSolver:  Solving for Ux, Initial residual = 0.00575972, Final residual = 7.62551e-13, No Iterations 74
smoothSolver:  Solving for Uy, Initial residual = 0.00829311, Final residual = 9.1045e-13, No Iterations 73
GAMG:  Solving for p, Initial residual = 0.00759624, Final residual = 8.08214e-13, No Iterations 35
time step continuity errors : sum local = 4.36804e-13, global = -2.04577e-14, cumulative = -9.27198e-14
smoothSolver:  Solving for omega, Initial residual = 0.00149429, Final residual = 7.8215e-13, No Iterations 69
smoothSolver:  Solving for k, Initial residual = 0.0102988, Final residual = 9.30377e-13, No Iterations 79
ExecutionTime = 45.04 s  ClockTime = 45 s

forceCoeffs forceCoeffs write:
    Coefficient	Total	Pressure	Viscous	Internal
    Cd:	5.68569	5.56397	0.121723	0
    Cd(f):	2.82518	2.76436	0.0608122	0
    Cd(r):	2.86052	2.79961	0.0609109	0
    Cl:	0.0353432	0.0352445	9.87448e-05	0
    Cl(f):	0.0180215	0.0176222	0.000399295	0
    Cl(r):	0.0173217	0.0176222	-0.000300551	0
    CmPitch:	0.000349923	-2.74845e-13	0.000349923	0
    CmRoll:	-0.0176716	-0.0176222	-4.93724e-05	0
    CmYaw:	2.84285	2.78199	0.0608616	0
    Cs:	-1.67102e-19	-1.32457e-19	-3.46451e-20	0
    Cs(f):	2.84285	2.78199	0.0608616	0
    Cs(r):	-2.84285	-2.78199	-0.0608616	0

    writing force and moment coefficient files.

Time = 53

smoothSolver:  Solving for Ux, Initial residual = 0.00564595, Final residual = 7.50377e-13, No Iterations 74
smoothSolver:  Solving for Uy, Initial residual = 0.0081356, Final residual = 9.06549e-13, No Iterations 73
GAMG:  Solving for p, Initial residual = 0.00741735, Final residual = 9.00048e-13, No Iterations 36
time step continuity errors : sum local = 4.86569e-13, global = 1.33491e-14, cumulative = -7.93707e-14
smoothSolver:  Solving for omega, Initial residual = 0.00146861, Final residual = 7.67935e-13, No Iterations 69
smoothSolver:  Solving for k, Initial residual = 0.0100907, Final residual = 9.10259e-13, No Iterations 79
ExecutionTime = 45.83 s  ClockTime = 46 s

forceCoeffs forceCoeffs write:
    Coefficient	Total	Pressure	Viscous	Internal
    Cd:	5.73717	5.61476	0.122401	0
    Cd(f):	2.85272	2.79155	0.0611714	0
    Cd(r):	2.88445	2.82322	0.0612295	0
    Cl:	0.0317317	0.0316735	5.81263e-05	0
    Cl(f):	0.01621	0.0158368	0.000373204	0
    Cl(r):	0.0155217	0.0158368	-0.000315078	0
    CmPitch:	0.000344141	-2.19971e-13	0.000344141	0
    CmRoll:	-0.0158658	-0.0158368	-2.90632e-05	0
    CmYaw:	2.86858	2.80738	0.0612005	0
    Cs:	-1.68094e-19	-1.33708e-19	-3.43863e-20	0
    Cs(f):	2.86858	2.80738	0.0612005	0
    Cs(r):	-2.86858	-2.80738	-0.0612005	0

    writing force and moment coefficient files.

Time = 54

smoothSolver:  Solving for Ux, Initial residual = 0.00553614, Final residual = 9.96747e-13, No Iterations 73
smoothSolver:  Solving for Uy, Initial residual = 0.00798472, Final residual = 9.02888e-13, No Iterations 73
GAMG:  Solving for p, Initial residual = 0.00725082, Final residual = 6.61698e-13, No Iterations 37
time step continuity errors : sum local = 3.57867e-13, global = 1.19355e-14, cumulative = -6.74352e-14
smoothSolver:  Solving for omega, Initial residual = 0.00143488, Final residual = 7.55155e-13, No Iterations 69
smoothSolver:  Solving for k, Initial residual = 0.00989057, Final residual = 8.91052e-13, No Iterations 79
ExecutionTime = 46.74 s  ClockTime = 47 s

forceCoeffs forceCoeffs write:
    Coefficient	Total	Pressure	Viscous	Internal
    Cd:	5.78978	5.66669	0.123084	0
    Cd(f):	2.88092	2.81939	0.0615295	0
    Cd(r):	2.90886	2.8473	0.0615544	0
    Cl:	0.027936	0.0279111	2.49306e-05	0
    Cl(f):	0.0143032	0.0139555	0.000347673	0
    Cl(r):	0.0136328	0.0139555	-0.000322742	0
    CmPitch:	0.000335208	-1.68417e-13	0.000335208	0
    CmRoll:	-0.013968	-0.0139555	-1.24653e-05	0
    CmYaw:	2.89489	2.83335	0.0615419	0
    Cs:	-1.69048e-19	-1.34952e-19	-3.40964e-20	0
    Cs(f):	2.89489	2.83335	0.0615419	0
    Cs(r):	-2.89489	-2.83335	-0.0615419	0

    writing force and moment coefficient files.

Time = 55

smoothSolver:  Solving for Ux, Initial residual = 0.00542997, Final residual = 9.81311e-13, No Iterations 73
smoothSolver:  Solving for Uy, Initial residual = 0.00783966, Final residual = 8.99491e-13, No Iterations 73
GAMG:  Solving for p, Initial residual = 0.00709058, Final residual = 7.6015e-13, No Iterations 37
time step continuity errors : sum local = 4.11185e-13, global = 1.37793e-14, cumulative = -5.36558e-14
smoothSolver:  Solving for omega, Initial residual = 0.00140444, Final residual = 7.42652e-13, No Iterations 69
smoothSolver:  Solving for k, Initial residual = 0.00969823, Final residual = 8.72387e-13, No Iterations 79
ExecutionTime = 47.69 s  ClockTime = 48 s

forceCoeffs forceCoeffs write:
    Coefficient	Total	Pressure	Viscous	Internal
    Cd:	5.84335	5.71957	0.123774	0
    Cd(f):	2.90977	2.84788	0.0618904	0
    Cd(r):	2.93358	2.8717	0.0618836	0
    Cl:	0.0238133	0.0238202	-6.83242e-06	0
    Cl(f):	0.0122329	0.0119101	0.000322857	0
    Cl(r):	0.0115804	0.0119101	-0.00032969	0
    CmPitch:	0.000326274	-1.12396e-13	0.000326274	0
    CmRoll:	-0.0119067	-0.0119101	3.41621e-06	0
    CmYaw:	2.92167	2.85979	0.061887	0
    Cs:	-1.70013e-19	-1.36191e-19	-3.38214e-20	0
    Cs(f):	2.92167	2.85979	0.061887	0
    Cs(r):	-2.92167	-2.85979	-0.061887	0

    writing force and moment coefficient files.

Time = 56

smoothSolver:  Solving for Ux, Initial residual = 0.00532721, Final residual = 9.66289e-13, No Iterations 73
smoothSolver:  Solving for Uy, Initial residual = 0.0077001, Final residual = 8.96183e-13, No Iterations 73
GAMG:  Solving for p, Initial residual = 0.00693816, Final residual = 8.08887e-13, No Iterations 37
time step continuity errors : sum local = 4.37655e-13, global = 1.46567e-14, cumulative = -3.89991e-14
smoothSolver:  Solving for omega, Initial residual = 0.00137448, Final residual = 9.84249e-13, No Iterations 68
smoothSolver:  Solving for k, Initial residual = 0.00951299, Final residual = 8.54429e-13, No Iterations 79
ExecutionTime = 48.66 s  ClockTime = 49 s

forceCoeffs forceCoeffs write:
    Coefficient	Total	Pressure	Viscous	Internal
    Cd:	5.89779	5.77331	0.124473	0
    Cd(f):	2.93904	2.87678	0.0622566	0
    Cd(r):	2.95875	2.89653	0.062216	0
    Cl:	0.0197065	0.0197471	-4.05746e-05	0
    Cl(f):	0.0101722	0.00987356	0.00029866	0
    Cl(r):	0.00953432	0.00987356	-0.000339235	0
    CmPitch:	0.000318948	-5.70911e-14	0.000318948	0
    CmRoll:	-0.00985327	-0.00987356	2.02873e-05	0
    CmYaw:	2.94889	2.88666	0.0622363	0
    Cs:	-1.7099e-19	-1.37414e-19	-3.3576e-20	0
    Cs(f):	2.94889	2.88666	0.0622363	0
    Cs(r):	-2.94889	-2.88666	-0.0622363	0

    writing force and moment coefficient files.

Time = 57

smoothSolver:  Solving for Ux, Initial residual = 0.00522771, Final residual = 9.51631e-13, No Iterations 73
smoothSolver:  Solving for Uy, Initial residual = 0.00756583, Final residual = 8.92988e-13, No Iterations 73
GAMG:  Solving for p, Initial residual = 0.00679677, Final residual = 8.26221e-13, No Iterations 37
time step continuity errors : sum local = 4.47092e-13, global = 1.49773e-14, cumulative = -2.40218e-14
smoothSolver:  Solving for omega, Initial residual = 0.0013538, Final residual = 9.68825e-13, No Iterations 68
smoothSolver:  Solving for k, Initial residual = 0.0093346, Final residual = 8.37122e-13, No Iterations 79
ExecutionTime = 49.56 s  ClockTime = 49 s

forceCoeffs forceCoeffs write:
    Coefficient	Total	Pressure	Viscous	Internal
    Cd:	5.95295	5.82777	0.125175	0
    Cd(f):	2.96865	2.90603	0.0626275	0
    Cd(r):	2.98429	2.92175	0.0625474	0
    Cl:	0.0156411	0.0157212	-8.00676e-05	0
    Cl(f):	0.008134	0.00786059	0.000273411	0
    Cl(r):	0.00750711	0.00786059	-0.000353478	0
    CmPitch:	0.000313444	-3.55045e-15	0.000313444	0
    CmRoll:	-0.00782056	-0.00786059	4.00338e-05	0
    CmYaw:	2.97647	2.91389	0.0625874	0
    Cs:	-1.71982e-19	-1.38624e-19	-3.33581e-20	0
    Cs(f):	2.97647	2.91389	0.0625874	0
    Cs(r):	-2.97647	-2.91389	-0.0625874	0

    writing force and moment coefficient files.

Time = 58

smoothSolver:  Solving for Ux, Initial residual = 0.00513123, Final residual = 9.37262e-13, No Iterations 73
smoothSolver:  Solving for Uy, Initial residual = 0.00743696, Final residual = 8.89783e-13, No Iterations 73
GAMG:  Solving for p, Initial residual = 0.00666444, Final residual = 8.44138e-13, No Iterations 37
time step continuity errors : sum local = 4.56756e-13, global = 1.52781e-14, cumulative = -8.74372e-15
smoothSolver:  Solving for omega, Initial residual = 0.00132727, Final residual = 9.52334e-13, No Iterations 68
smoothSolver:  Solving for k, Initial residual = 0.00916264, Final residual = 8.20391e-13, No Iterations 79
ExecutionTime = 50.42 s  ClockTime = 50 s

forceCoeffs forceCoeffs write:
    Coefficient	Total	Pressure	Viscous	Internal
    Cd:	6.00875	5.88287	0.12588	0
    Cd(f):	2.99845	2.93545	0.0630027	0
    Cd(r):	3.0103	2.94742	0.0628777	0
    Cl:	0.011844	0.011969	-0.000124987	0
    Cl(f):	0.00623262	0.0059845	0.000248118	0
    Cl(r):	0.00561139	0.0059845	-0.000373105	0
    CmPitch:	0.000310612	4.98036e-14	0.000310612	0
    CmRoll:	-0.00592201	-0.0059845	6.24934e-05	0
    CmYaw:	3.00437	2.94143	0.0629402	0
    Cs:	-1.72981e-19	-1.39816e-19	-3.31651e-20	0
    Cs(f):	3.00437	2.94143	0.0629402	0
    Cs(r):	-3.00437	-2.94143	-0.0629402	0

    writing force and moment coefficient files.

Time = 59

smoothSolver:  Solving for Ux, Initial residual = 0.00503774, Final residual = 9.23163e-13, No Iterations 73
[...]
    Cl(r):	-0.0348689	-0.0342657	-0.000603164	0
    CmPitch:	7.10997e-05	5.03251e-13	7.10997e-05	0
    CmRoll:	0.0347978	0.0342657	0.000532065	0
    CmYaw:	11.2563	11.0747	0.181626	0
    Cs:	-4.12434e-19	-3.8396e-19	-2.84746e-20	0
    Cs(f):	11.2563	11.0747	0.181626	0
    Cs(r):	-11.2563	-11.0747	-0.181626	0

    writing force and moment coefficient files.

Time = 2159

smoothSolver:  Solving for Ux, Initial residual = 5.27784e-05, Final residual = 7.77589e-13, No Iterations 61
smoothSolver:  Solving for Uy, Initial residual = 0.000113307, Final residual = 9.59806e-13, No Iterations 62
GAMG:  Solving for p, Initial residual = 7.63655e-05, Final residual = 8.83644e-13, No Iterations 25
time step continuity errors : sum local = 3.71659e-13, global = 6.95819e-15, cumulative = 1.85042e-12
smoothSolver:  Solving for omega, Initial residual = 3.33734e-05, Final residual = 7.74653e-13, No Iterations 59
smoothSolver:  Solving for k, Initial residual = 0.00018354, Final residual = 8.04824e-13, No Iterations 65
bounding k, min: -0.0023626 max: 22.3402 average: 5.48977
ExecutionTime = 1570.81 s  ClockTime = 1571 s

forceCoeffs forceCoeffs write:
    Coefficient	Total	Pressure	Viscous	Internal
    Cd:	22.513	22.1498	0.363243	0
    Cd(f):	11.2912	11.1091	0.182154	0
    Cd(r):	11.2218	11.0407	0.181089	0
    Cl:	-0.0694782	-0.0684127	-0.00106549	0
    Cl(f):	-0.0346666	-0.0342064	-0.000460257	0
    Cl(r):	-0.0348116	-0.0342064	-0.00060523	0
    CmPitch:	7.24866e-05	5.01153e-13	7.24866e-05	0
    CmRoll:	0.0347391	0.0342064	0.000532743	0
    CmYaw:	11.2565	11.0749	0.181622	0
    Cs:	-4.12436e-19	-3.83972e-19	-2.84645e-20	0
    Cs(f):	11.2565	11.0749	0.181622	0
    Cs(r):	-11.2565	-11.0749	-0.181622	0

    writing force and moment coefficient files.

Time = 2160

smoothSolver:  Solving for Ux, Initial residual = 5.27125e-05, Final residual = 7.76588e-13, No Iterations 61
smoothSolver:  Solving for Uy, Initial residual = 0.000113177, Final residual = 9.58719e-13, No Iterations 62
GAMG:  Solving for p, Initial residual = 7.58403e-05, Final residual = 8.36481e-13, No Iterations 24
time step continuity errors : sum local = 3.5183e-13, global = 5.6006e-15, cumulative = 1.85602e-12
smoothSolver:  Solving for omega, Initial residual = 3.32469e-05, Final residual = 7.73797e-13, No Iterations 59
smoothSolver:  Solving for k, Initial residual = 0.000183225, Final residual = 8.03743e-13, No Iterations 65
bounding k, min: -0.00228712 max: 22.341 average: 5.48951
ExecutionTime = 1571.48 s  ClockTime = 1572 s

forceCoeffs forceCoeffs write:
    Coefficient	Total	Pressure	Viscous	Internal
    Cd:	22.5132	22.1499	0.36325	0
    Cd(f):	11.2913	11.1091	0.182156	0
    Cd(r):	11.2219	11.0408	0.181094	0
    Cl:	-0.0693983	-0.068337	-0.00106123	0
    Cl(f):	-0.034628	-0.0341685	-0.000459483	0
    Cl(r):	-0.0347703	-0.0341685	-0.000601744	0
    CmPitch:	7.11304e-05	5.01402e-13	7.11304e-05	0
    CmRoll:	0.0346991	0.0341685	0.000530613	0
    CmYaw:	11.2566	11.075	0.181625	0
    Cs:	-4.12455e-19	-3.83984e-19	-2.84703e-20	0
    Cs(f):	11.2566	11.075	0.181625	0
    Cs(r):	-11.2566	-11.075	-0.181625	0

    writing force and moment coefficient files.

Time = 2161

smoothSolver:  Solving for Ux, Initial residual = 5.26435e-05, Final residual = 7.75548e-13, No Iterations 61
smoothSolver:  Solving for Uy, Initial residual = 0.000113072, Final residual = 9.57965e-13, No Iterations 62
GAMG:  Solving for p, Initial residual = 7.62109e-05, Final residual = 8.87232e-13, No Iterations 25
time step continuity errors : sum local = 3.7316e-13, global = 6.95888e-15, cumulative = 1.86298e-12
smoothSolver:  Solving for omega, Initial residual = 3.32833e-05, Final residual = 7.73083e-13, No Iterations 59
smoothSolver:  Solving for k, Initial residual = 0.000182914, Final residual = 8.02631e-13, No Iterations 65
bounding k, min: -0.00233481 max: 22.3419 average: 5.48924
ExecutionTime = 1572.13 s  ClockTime = 1572 s

forceCoeffs forceCoeffs write:
    Coefficient	Total	Pressure	Viscous	Internal
    Cd:	22.5135	22.1503	0.363242	0
    Cd(f):	11.2914	11.1093	0.182152	0
    Cd(r):	11.2221	11.041	0.18109	0
    Cl:	-0.0692853	-0.0682228	-0.00106249	0
    Cl(f):	-0.0345702	-0.0341114	-0.000458822	0
    Cl(r):	-0.0347151	-0.0341114	-0.000603672	0
    CmPitch:	7.24247e-05	4.99423e-13	7.24247e-05	0
    CmRoll:	0.0346427	0.0341114	0.000531247	0
    CmYaw:	11.2568	11.0751	0.181621	0
    Cs:	-4.12457e-19	-3.83997e-19	-2.84605e-20	0
    Cs(f):	11.2568	11.0751	0.181621	0
    Cs(r):	-11.2568	-11.0751	-0.181621	0

    writing force and moment coefficient files.

Time = 2162

smoothSolver:  Solving for Ux, Initial residual = 5.25776e-05, Final residual = 7.7454e-13, No Iterations 61
smoothSolver:  Solving for Uy, Initial residual = 0.000112941, Final residual = 9.56858e-13, No Iterations 62
GAMG:  Solving for p, Initial residual = 7.59397e-05, Final residual = 8.40522e-13, No Iterations 24
time step continuity errors : sum local = 3.53551e-13, global = 5.63363e-15, cumulative = 1.86861e-12
smoothSolver:  Solving for omega, Initial residual = 3.31543e-05, Final residual = 7.72223e-13, No Iterations 59
smoothSolver:  Solving for k, Initial residual = 0.000182601, Final residual = 8.01557e-13, No Iterations 65
bounding k, min: -0.00225905 max: 22.3427 average: 5.48897
ExecutionTime = 1572.77 s  ClockTime = 1573 s

forceCoeffs forceCoeffs write:
    Coefficient	Total	Pressure	Viscous	Internal
    Cd:	22.5137	22.1505	0.363248	0
    Cd(f):	11.2915	11.1093	0.182153	0
    Cd(r):	11.2223	11.0412	0.181095	0
    Cl:	-0.069211	-0.0681531	-0.00105784	0
    Cl(f):	-0.0345347	-0.0340766	-0.000458161	0
    Cl(r):	-0.0346763	-0.0340766	-0.00059968	0
    CmPitch:	7.07596e-05	4.99886e-13	7.07596e-05	0
    CmRoll:	0.0346055	0.0340766	0.000528921	0
    CmYaw:	11.2569	11.0752	0.181624	0
    Cs:	-4.12476e-19	-3.84009e-19	-2.84666e-20	0
    Cs(f):	11.2569	11.0752	0.181624	0
    Cs(r):	-11.2569	-11.0752	-0.181624	0

    writing force and moment coefficient files.

Time = 2163

smoothSolver:  Solving for Ux, Initial residual = 5.25086e-05, Final residual = 7.73499e-13, No Iterations 61
smoothSolver:  Solving for Uy, Initial residual = 0.000112835, Final residual = 9.56106e-13, No Iterations 62
GAMG:  Solving for p, Initial residual = 7.60777e-05, Final residual = 8.89047e-13, No Iterations 25
time step continuity errors : sum local = 3.73915e-13, global = 6.99619e-15, cumulative = 1.87561e-12
smoothSolver:  Solving for omega, Initial residual = 3.31886e-05, Final residual = 7.7151e-13, No Iterations 59
smoothSolver:  Solving for k, Initial residual = 0.000182291, Final residual = 8.00479e-13, No Iterations 65
bounding k, min: -0.00230639 max: 22.3435 average: 5.48871
ExecutionTime = 1573.42 s  ClockTime = 1574 s

forceCoeffs forceCoeffs write:
    Coefficient	Total	Pressure	Viscous	Internal
    Cd:	22.5141	22.1509	0.36324	0
    Cd(f):	11.2916	11.1095	0.182149	0
    Cd(r):	11.2225	11.0414	0.18109	0
    Cl:	-0.0691062	-0.0680474	-0.00105883	0
    Cl(f):	-0.0344813	-0.0340237	-0.00045759	0
    Cl(r):	-0.0346249	-0.0340237	-0.00060124	0
    CmPitch:	7.18251e-05	4.97834e-13	7.18251e-05	0
    CmRoll:	0.0345531	0.0340237	0.000529415	0
    CmYaw:	11.257	11.0754	0.18162	0
    Cs:	-4.12479e-19	-3.84022e-19	-2.8457e-20	0
    Cs(f):	11.257	11.0754	0.18162	0
    Cs(r):	-11.257	-11.0754	-0.18162	0

    writing force and moment coefficient files.

Time = 2164

smoothSolver:  Solving for Ux, Initial residual = 5.24427e-05, Final residual = 7.72483e-13, No Iterations 61
smoothSolver:  Solving for Uy, Initial residual = 0.000112702, Final residual = 9.54992e-13, No Iterations 62
GAMG:  Solving for p, Initial residual = 7.59544e-05, Final residual = 8.44394e-13, No Iterations 24
time step continuity errors : sum local = 3.55159e-13, global = 5.70805e-15, cumulative = 1.88132e-12
smoothSolver:  Solving for omega, Initial residual = 3.30588e-05, Final residual = 7.7065e-13, No Iterations 59
smoothSolver:  Solving for k, Initial residual = 0.000181979, Final residual = 7.99384e-13, No Iterations 65
bounding k, min: -0.0022312 max: 22.3444 average: 5.48845
ExecutionTime = 1574.05 s  ClockTime = 1574 s

forceCoeffs forceCoeffs write:
    Coefficient	Total	Pressure	Viscous	Internal
    Cd:	22.5143	22.151	0.363246	0
    Cd(f):	11.2917	11.1095	0.18215	0
    Cd(r):	11.2226	11.0415	0.181096	0
    Cl:	-0.0690375	-0.0679834	-0.00105409	0
    Cl(f):	-0.0344486	-0.0339917	-0.000456938	0
    Cl(r):	-0.0345888	-0.0339917	-0.000597154	0
    CmPitch:	7.01077e-05	4.98331e-13	7.01077e-05	0
    CmRoll:	0.0345187	0.0339917	0.000527046	0
    CmYaw:	11.2571	11.0755	0.181623	0
    Cs:	-4.12498e-19	-3.84034e-19	-2.84635e-20	0
    Cs(f):	11.2571	11.0755	0.181623	0
    Cs(r):	-11.2571	-11.0755	-0.181623	0

    writing force and moment coefficient files.

Time = 2165

smoothSolver:  Solving for Ux, Initial residual = 5.23738e-05, Final residual = 7.71453e-13, No Iterations 61
smoothSolver:  Solving for Uy, Initial residual = 0.000112597, Final residual = 9.5421e-13, No Iterations 62
GAMG:  Solving for p, Initial residual = 7.59019e-05, Final residual = 8.92599e-13, No Iterations 25
time step continuity errors : sum local = 3.7544e-13, global = 6.96325e-15, cumulative = 1.88828e-12
smoothSolver:  Solving for omega, Initial residual = 3.30918e-05, Final residual = 7.69937e-13, No Iterations 59
smoothSolver:  Solving for k, Initial residual = 0.000181671, Final residual = 7.98301e-13, No Iterations 65
bounding k, min: -0.00227862 max: 22.3452 average: 5.48818
ExecutionTime = 1574.69 s  ClockTime = 1575 s

forceCoeffs forceCoeffs write:
    Coefficient	Total	Pressure	Viscous	Internal
    Cd:	22.5147	22.1514	0.363238	0
    Cd(f):	11.2918	11.1097	0.182146	0
    Cd(r):	11.2229	11.0418	0.181092	0
    Cl:	-0.0689407	-0.0678858	-0.00105492	0
    Cl(f):	-0.0343993	-0.0339429	-0.00045641	0
    Cl(r):	-0.0345414	-0.0339429	-0.000598515	0
    CmPitch:	7.10524e-05	4.96476e-13	7.10524e-05	0
    CmRoll:	0.0344704	0.0339429	0.000527462	0
    CmYaw:	11.2573	11.0757	0.181619	0
    Cs:	-4.12501e-19	-3.84047e-19	-2.84543e-20	0
    Cs(f):	11.2573	11.0757	0.181619	0
    Cs(r):	-11.2573	-11.0757	-0.181619	0

    writing force and moment coefficient files.

Time = 2166

smoothSolver:  Solving for Ux, Initial residual = 5.23078e-05, Final residual = 7.70448e-13, No Iterations 61
smoothSolver:  Solving for Uy, Initial residual = 0.000112462, Final residual = 9.53096e-13, No Iterations 62
GAMG:  Solving for p, Initial residual = 7.58725e-05, Final residual = 8.47814e-13, No Iterations 24
time step continuity errors : sum local = 3.5662e-13, global = 5.73107e-15, cumulative = 1.89401e-12
smoothSolver:  Solving for omega, Initial residual = 3.29572e-05, Final residual = 7.69075e-13, No Iterations 59
smoothSolver:  Solving for k, Initial residual = 0.000181361, Final residual = 7.97229e-13, No Iterations 65
bounding k, min: -0.00220396 max: 22.346 average: 5.48792
ExecutionTime = 1575.33 s  ClockTime = 1576 s

forceCoeffs forceCoeffs write:
    Coefficient	Total	Pressure	Viscous	Internal
    Cd:	22.5149	22.1516	0.363245	0
    Cd(f):	11.2919	11.1097	0.182148	0
    Cd(r):	11.223	11.0419	0.181097	0
    Cl:	-0.0688774	-0.0678273	-0.00105018	0
    Cl(f):	-0.0343694	-0.0339136	-0.000455756	0
    Cl(r):	-0.0345081	-0.0339136	-0.000594427	0
    CmPitch:	6.93354e-05	4.96905e-13	6.93354e-05	0
    CmRoll:	0.0344387	0.0339136	0.000525091	0
    CmYaw:	11.2574	11.0758	0.181622	0
    Cs:	-4.1252e-19	-3.8406e-19	-2.84609e-20	0
    Cs(f):	11.2574	11.0758	0.181622	0
    Cs(r):	-11.2574	-11.0758	-0.181622	0

    writing force and moment coefficient files.

Time = 2167

smoothSolver:  Solving for Ux, Initial residual = 5.22388e-05, Final residual = 7.6942e-13, No Iterations 61
smoothSolver:  Solving for Uy, Initial residual = 0.000112357, Final residual = 9.52334e-13, No Iterations 62
GAMG:  Solving for p, Initial residual = 7.57042e-05, Final residual = 8.88136e-13, No Iterations 25
time step continuity errors : sum local = 3.73566e-13, global = 6.9546e-15, cumulative = 1.90097e-12
smoothSolver:  Solving for omega, Initial residual = 3.29888e-05, Final residual = 7.68366e-13, No Iterations 59
smoothSolver:  Solving for k, Initial residual = 0.000181054, Final residual = 7.96154e-13, No Iterations 65
bounding k, min: -0.00225156 max: 22.3469 average: 5.48766
ExecutionTime = 1575.96 s  ClockTime = 1576 s

forceCoeffs forceCoeffs write:
    Coefficient	Total	Pressure	Viscous	Internal
    Cd:	22.5153	22.1521	0.363237	0
    Cd(f):	11.292	11.1099	0.182144	0
    Cd(r):	11.2232	11.0422	0.181093	0
    Cl:	-0.0687882	-0.0677373	-0.00105093	0
    Cl(f):	-0.0343239	-0.0338686	-0.000455265	0
    Cl(r):	-0.0344643	-0.0338686	-0.000595663	0
    CmPitch:	7.01994e-05	4.95122e-13	7.01994e-05	0
    CmRoll:	0.0343941	0.0338686	0.000525464	0
    CmYaw:	11.2576	11.076	0.181618	0
    Cs:	-4.12524e-19	-3.84073e-19	-2.84518e-20	0
    Cs(f):	11.2576	11.076	0.181618	0
    Cs(r):	-11.2576	-11.076	-0.181618	0

    writing force and moment coefficient files.

Time = 2168

smoothSolver:  Solving for Ux, Initial residual = 5.21728e-05, Final residual = 7.68412e-13, No Iterations 61
smoothSolver:  Solving for Uy, Initial residual = 0.000112222, Final residual = 9.51202e-13, No Iterations 62
GAMG:  Solving for p, Initial residual = 7.5722e-05, Final residual = 8.48234e-13, No Iterations 24
time step continuity errors : sum local = 3.56829e-13, global = 5.75925e-15, cumulative = 1.90672e-12
smoothSolver:  Solving for omega, Initial residual = 3.28494e-05, Final residual = 7.67504e-13, No Iterations 59
smoothSolver:  Solving for k, Initial residual = 0.000180745, Final residual = 7.95081e-13, No Iterations 65
bounding k, min: -0.00217734 max: 22.3477 average: 5.4874
ExecutionTime = 1576.62 s  ClockTime = 1577 s

forceCoeffs forceCoeffs write:
    Coefficient	Total	Pressure	Viscous	Internal
    Cd:	22.5155	22.1523	0.363244	0
    Cd(f):	11.2921	11.11	0.182145	0
    Cd(r):	11.2234	11.0423	0.181099	0
    Cl:	-0.0687292	-0.067683	-0.00104624	0
    Cl(f):	-0.0342961	-0.0338415	-0.000454605	0
    Cl(r):	-0.0344331	-0.0338415	-0.00059163	0
    CmPitch:	6.85123e-05	4.95669e-13	6.85123e-05	0
    CmRoll:	0.0343646	0.0338415	0.000523118	0
    CmYaw:	11.2578	11.0761	0.181622	0
    Cs:	-4.12543e-19	-3.84085e-19	-2.84581e-20	0
    Cs(f):	11.2578	11.0761	0.181622	0
    Cs(r):	-11.2578	-11.0761	-0.181622	0

    writing force and moment coefficient files.

Time = 2169

smoothSolver:  Solving for Ux, Initial residual = 5.21039e-05, Final residual = 7.67379e-13, No Iterations 61
smoothSolver:  Solving for Uy, Initial residual = 0.000112117, Final residual = 9.50435e-13, No Iterations 62
GAMG:  Solving for p, Initial residual = 7.5499e-05, Final residual = 8.80177e-13, No Iterations 25
time step continuity errors : sum local = 3.70201e-13, global = 6.90749e-15, cumulative = 1.91363e-12
smoothSolver:  Solving for omega, Initial residual = 3.288e-05, Final residual = 7.66793e-13, No Iterations 59
smoothSolver:  Solving for k, Initial residual = 0.00018044, Final residual = 7.94013e-13, No Iterations 65
bounding k, min: -0.00222502 max: 22.3485 average: 5.48714
ExecutionTime = 1577.28 s  ClockTime = 1578 s

forceCoeffs forceCoeffs write:
    Coefficient	Total	Pressure	Viscous	Internal
    Cd:	22.5159	22.1527	0.363236	0
    Cd(f):	11.2923	11.1101	0.182141	0
    Cd(r):	11.2236	11.0425	0.181094	0
    Cl:	-0.0686461	-0.0675992	-0.00104692	0
    Cl(f):	-0.0342538	-0.0337996	-0.000454153	0
    Cl(r):	-0.0343924	-0.0337996	-0.00059277	0
    CmPitch:	6.93085e-05	4.93885e-13	6.93085e-05	0
    CmRoll:	0.0343231	0.0337996	0.000523462	0
    CmYaw:	11.258	11.0763	0.181618	0
    Cs:	-4.12548e-19	-3.84099e-19	-2.8449e-20	0
    Cs(f):	11.258	11.0763	0.181618	0
    Cs(r):	-11.258	-11.0763	-0.181618	0

    writing force and moment coefficient files.

Time = 2170

smoothSolver:  Solving for Ux, Initial residual = 5.20378e-05, Final residual = 7.66383e-13, No Iterations 61
smoothSolver:  Solving for Uy, Initial residual = 0.000111981, Final residual = 9.49312e-13, No Iterations 62
GAMG:  Solving for p, Initial residual = 7.55338e-05, Final residual = 8.50909e-13, No Iterations 24
time step continuity errors : sum local = 3.57899e-13, global = 5.7566e-15, cumulative = 1.91939e-12
smoothSolver:  Solving for omega, Initial residual = 3.27368e-05, Final residual = 7.65928e-13, No Iterations 59
smoothSolver:  Solving for k, Initial residual = 0.000180132, Final residual = 7.92924e-13, No Iterations 65
bounding k, min: -0.00215115 max: 22.3493 average: 5.48688
ExecutionTime = 1577.94 s  ClockTime = 1578 s

forceCoeffs forceCoeffs write:
    Coefficient	Total	Pressure	Viscous	Internal
    Cd:	22.5161	22.1529	0.363243	0
    Cd(f):	11.2924	11.1102	0.182143	0
    Cd(r):	11.2238	11.0427	0.1811	0
    Cl:	-0.0685882	-0.0675459	-0.00104229	0
    Cl(f):	-0.0342265	-0.033773	-0.000453485	0
    Cl(r):	-0.0343618	-0.033773	-0.000588802	0
    CmPitch:	6.76585e-05	4.94254e-13	6.76585e-05	0
    CmRoll:	0.0342941	0.033773	0.000521144	0
    CmYaw:	11.2581	11.0765	0.181621	0
    Cs:	-4.12567e-19	-3.84112e-19	-2.84551e-20	0
    Cs(f):	11.2581	11.0765	0.181621	0
    Cs(r):	-11.2581	-11.0765	-0.181621	0

    writing force and moment coefficient files.

Time = 2171

smoothSolver:  Solving for Ux, Initial residual = 5.19689e-05, Final residual = 7.65328e-13, No Iterations 61
smoothSolver:  Solving for Uy, Initial residual = 0.000111877, Final residual = 9.48535e-13, No Iterations 62
GAMG:  Solving for p, Initial residual = 7.53015e-05, Final residual = 8.71599e-13, No Iterations 25
time step continuity errors : sum local = 3.66639e-13, global = 6.83725e-15, cumulative = 1.92623e-12
smoothSolver:  Solving for omega, Initial residual = 3.27746e-05, Final residual = 7.65224e-13, No Iterations 59
smoothSolver:  Solving for k, Initial residual = 0.000179827, Final residual = 7.91879e-13, No Iterations 65
bounding k, min: -0.00219882 max: 22.3502 average: 5.48662
ExecutionTime = 1578.61 s  ClockTime = 1579 s

forceCoeffs forceCoeffs write:
    Coefficient	Total	Pressure	Viscous	Internal
    Cd:	22.5166	22.1533	0.363235	0
    Cd(f):	11.2925	11.1104	0.182139	0
    Cd(r):	11.224	11.0429	0.181096	0
    Cl:	-0.0685089	-0.067466	-0.00104292	0
    Cl(f):	-0.0341861	-0.033733	-0.000453068	0
    Cl(r):	-0.0343229	-0.033733	-0.000589847	0
    CmPitch:	6.83895e-05	4.92642e-13	6.83895e-05	0
    CmRoll:	0.0342545	0.033733	0.000521458	0
    CmYaw:	11.2583	11.0767	0.181617	0
    Cs:	-4.12571e-19	-3.84125e-19	-2.84459e-20	0
    Cs(f):	11.2583	11.0767	0.181617	0
    Cs(r):	-11.2583	-11.0767	-0.181617	0

    writing force and moment coefficient files.

Time = 2172

smoothSolver:  Solving for Ux, Initial residual = 5.19028e-05, Final residual = 7.64333e-13, No Iterations 61
smoothSolver:  Solving for Uy, Initial residual = 0.000111739, Final residual = 9.47405e-13, No Iterations 62
GAMG:  Solving for p, Initial residual = 7.53321e-05, Final residual = 8.51416e-13, No Iterations 24
time step continuity errors : sum local = 3.58078e-13, global = 5.77864e-15, cumulative = 1.932e-12
smoothSolver:  Solving for omega, Initial residual = 3.2638e-05, Final residual = 7.64357e-13, No Iterations 59
smoothSolver:  Solving for k, Initial residual = 0.000179521, Final residual = 7.90809e-13, No Iterations 65
bounding k, min: -0.00212526 max: 22.351 average: 5.48637
ExecutionTime = 1579.27 s  ClockTime = 1580 s

forceCoeffs forceCoeffs write:
    Coefficient	Total	Pressure	Viscous	Internal
    Cd:	22.5168	22.1536	0.363243	0
    Cd(f):	11.2926	11.1105	0.18214	0
    Cd(r):	11.2242	11.0431	0.181102	0
    Cl:	-0.068451	-0.0674127	-0.00103834	0
    Cl(f):	-0.0341587	-0.0337063	-0.00045239	0
    Cl(r):	-0.0342923	-0.0337063	-0.000585945	0
    CmPitch:	6.67777e-05	4.93035e-13	6.67777e-05	0
    CmRoll:	0.0342255	0.0337063	0.000519168	0
    CmYaw:	11.2584	11.0768	0.181621	0
    Cs:	-4.1259e-19	-3.84138e-19	-2.84517e-20	0
    Cs(f):	11.2584	11.0768	0.181621	0
    Cs(r):	-11.2584	-11.0768	-0.181621	0

    writing force and moment coefficient files.

Time = 2173

