/*---------------------------------------------------------------------------*\
| =========                 |                                                 |
| \\      /  F ield         | OpenFOAM: The Open Source CFD Toolbox           |
|  \\    /   O peration     | Version:  2312                                  |
|   \\  /    A nd           | Website:  www.openfoam.com                      |
|    \\/     M anipulation  |                                                 |
\*---------------------------------------------------------------------------*/
Build  : _c39a0f64-20231220 OPENFOAM=2312 version=2312
Arch   : "LSB;label=32;scalar=64"
Exec   : simpleFoam
Date   : Jun 06 2024
Time   : 10:27:54
Host   : Manas
PID    : 40860
I/O    : uncollated
Case   : /home/manascfd/Masters_Projects_Main/CF_Kw_1
nProcs : 1
trapFpe: Floating point exception trapping enabled (FOAM_SIGFPE).
fileModificationChecking : Monitoring run-time modified files using timeStampMaster (fileModificationSkew 5, maxFileModificationPolls 20)
allowSystemOperations : Allowing user-supplied system call operations

// * * * * * * * * * * * * * * * * * * * * * * * * * * * * * * * * * * * * * //
Create time

Create mesh for time = 0


SIMPLE: convergence criteria
    field p	 tolerance 1e-12
    field U	 tolerance 1e-12
    field "(k|epsilon|omega|f|v2)"	 tolerance 1e-12

Reading field p

Reading field U

Reading/calculating face flux field phi

Selecting incompressible transport model Newtonian
Selecting turbulence model type RAS
Selecting RAS turbulence model kOmega
RAS
{
    RASModel        kOmega;
    turbulence      on;
    printCoeffs     on;
    betaStar        0.09;
    beta            0.072;
    gamma           0.52;
    alphaK          0.5;
    alphaOmega      0.5;
}

No MRF models present

No finite volume options present

Starting time loop

forceCoeffs forceCoeffs:
    rho: rhoInf
    Freestream density (rhoInf) set to 1
    Not including porosity effects
    magUInf: 1
    lRef   : 1
    Aref   : 1
    rhoInf : 1
    Selecting all coefficients
    - Drag force: Cd
    - Drag force front: Cd(f)
    - Drag force rear: Cd(r)
    - Lift force: Cl
    - Lift force front: Cl(f)
    - Lift force rear: Cl(r)
    - Pitch moment: CmPitch
    - Roll moment: CmRoll
    - Yaw moment: CmYaw
    - Side force: Cs
    - Side force front: Cs(f)
    - Side force rear: Cs(r)


Sampled set:
    sampleLine_U -> raw

streamLine streamlines:
    Employing velocity field U
    automatic track length specified through number of sub cycles : 5

Time = 1

smoothSolver:  Solving for Ux, Initial residual = 1, Final residual = 8.39579e-13, No Iterations 72
smoothSolver:  Solving for Uy, Initial residual = 1, Final residual = 7.44853e-13, No Iterations 72
GAMG:  Solving for p, Initial residual = 1, Final residual = 9.74346e-12, No Iterations 1000
time step continuity errors : sum local = 3.14814e-14, global = -2.83918e-16, cumulative = -2.83918e-16
smoothSolver:  Solving for omega, Initial residual = 0.207322, Final residual = 9.92186e-13, No Iterations 72
bounding omega, min: -0.111958 max: 63.6315 average: 0.10877
smoothSolver:  Solving for k, Initial residual = 1, Final residual = 7.51297e-13, No Iterations 73
bounding k, min: -2.58667e-05 max: 0.000417649 average: 7.32855e-06
ExecutionTime = 5.91 s  ClockTime = 6 s

forceCoeffs forceCoeffs write:
    Coefficient	Total	Pressure	Viscous	Internal
    Cd:	0.00165814	0.0016504	7.73635e-06	0
    Cd(f):	0.000819435	0.000815611	3.824e-06	0
    Cd(r):	0.000838701	0.000834789	3.91235e-06	0
    Cl:	1.92661e-05	1.91778e-05	8.83594e-08	0
    Cl(f):	9.61916e-06	9.58889e-06	3.02684e-08	0
    Cl(r):	9.64699e-06	9.58889e-06	5.8091e-08	0
    CmPitch:	-1.39113e-08	5.01125e-17	-1.39113e-08	0
    CmRoll:	-9.63307e-06	-9.58889e-06	-4.41797e-08	0
    CmYaw:	0.000829068	0.0008252	3.86817e-06	0
    Cs:	-5.68212e-22	-3.15198e-22	-2.53014e-22	0
    Cs(f):	0.000829068	0.0008252	3.86817e-06	0
    Cs(r):	-0.000829068	-0.0008252	-3.86817e-06	0

    writing force and moment coefficient files.

Time = 2

smoothSolver:  Solving for Ux, Initial residual = 0.362322, Final residual = 7.90294e-13, No Iterations 80
smoothSolver:  Solving for Uy, Initial residual = 0.601205, Final residual = 8.59333e-13, No Iterations 78
GAMG:  Solving for p, Initial residual = 0.040774, Final residual = 6.67679e-13, No Iterations 43
time step continuity errors : sum local = 1.97742e-13, global = 4.42472e-15, cumulative = 4.1408e-15
smoothSolver:  Solving for omega, Initial residual = 0.147247, Final residual = 9.12805e-13, No Iterations 61
smoothSolver:  Solving for k, Initial residual = 0.413401, Final residual = 8.71387e-13, No Iterations 63
ExecutionTime = 6.71 s  ClockTime = 7 s

forceCoeffs forceCoeffs write:
    Coefficient	Total	Pressure	Viscous	Internal
    Cd:	0.0011677	0.00113301	3.46961e-05	0
    Cd(f):	0.000591034	0.000573687	1.7347e-05	0
    Cd(r):	0.00057667	0.00055932	1.73491e-05	0
    Cl:	-1.43645e-05	-1.43666e-05	2.10695e-09	0
    Cl(f):	-7.39216e-06	-7.18331e-06	-2.08854e-07	0
    Cl(r):	-6.97234e-06	-7.18331e-06	2.10961e-07	0
    CmPitch:	-2.09907e-07	9.69064e-17	-2.09907e-07	0
    CmRoll:	7.18225e-06	7.18331e-06	-1.05347e-09	0
    CmYaw:	0.000583852	0.000566504	1.7348e-05	0
    Cs:	2.02776e-22	-3.93146e-23	2.4209e-22	0
    Cs(f):	0.000583852	0.000566504	1.7348e-05	0
    Cs(r):	-0.000583852	-0.000566504	-1.7348e-05	0

    writing force and moment coefficient files.

Time = 3

smoothSolver:  Solving for Ux, Initial residual = 0.150979, Final residual = 8.26403e-13, No Iterations 75
smoothSolver:  Solving for Uy, Initial residual = 0.505436, Final residual = 7.97765e-13, No Iterations 78
GAMG:  Solving for p, Initial residual = 0.141689, Final residual = 9.48783e-13, No Iterations 43
time step continuity errors : sum local = 3.54278e-14, global = 1.37349e-15, cumulative = 5.51429e-15
smoothSolver:  Solving for omega, Initial residual = 0.0568464, Final residual = 7.5891e-13, No Iterations 63
smoothSolver:  Solving for k, Initial residual = 0.195874, Final residual = 8.69751e-13, No Iterations 62
ExecutionTime = 7.47 s  ClockTime = 7 s

forceCoeffs forceCoeffs write:
    Coefficient	Total	Pressure	Viscous	Internal
    Cd:	0.00138581	0.00134602	3.97851e-05	0
    Cd(f):	0.000706124	0.00068588	2.02448e-05	0
    Cd(r):	0.000679684	0.000660144	1.95402e-05	0
    Cl:	-2.644e-05	-2.57354e-05	-7.04587e-07	0
    Cl(f):	-1.31923e-05	-1.28677e-05	-3.24589e-07	0
    Cl(r):	-1.32477e-05	-1.28677e-05	-3.79997e-07	0
    CmPitch:	2.77041e-08	1.80402e-16	2.77041e-08	0
    CmRoll:	1.322e-05	1.28677e-05	3.52293e-07	0
    CmYaw:	0.000692904	0.000673012	1.98925e-05	0
    Cs:	1.03656e-23	-1.95806e-23	2.99462e-23	0
    Cs(f):	0.000692904	0.000673012	1.98925e-05	0
    Cs(r):	-0.000692904	-0.000673012	-1.98925e-05	0

    writing force and moment coefficient files.

Time = 4

smoothSolver:  Solving for Ux, Initial residual = 0.0693787, Final residual = 9.27735e-13, No Iterations 74
smoothSolver:  Solving for Uy, Initial residual = 0.306919, Final residual = 7.42472e-13, No Iterations 79
GAMG:  Solving for p, Initial residual = 0.0856781, Final residual = 9.4307e-13, No Iterations 41
time step continuity errors : sum local = 2.90659e-14, global = -8.42059e-16, cumulative = 4.67223e-15
smoothSolver:  Solving for omega, Initial residual = 0.0362135, Final residual = 9.57255e-13, No Iterations 62
smoothSolver:  Solving for k, Initial residual = 0.135812, Final residual = 8.49166e-13, No Iterations 62
ExecutionTime = 8.19 s  ClockTime = 8 s

forceCoeffs forceCoeffs write:
    Coefficient	Total	Pressure	Viscous	Internal
    Cd:	0.00151204	0.00146705	4.49948e-05	0
    Cd(f):	0.000776404	0.000753344	2.306e-05	0
    Cd(r):	0.000735636	0.000713701	2.19348e-05	0
    Cl:	-4.07682e-05	-3.9643e-05	-1.12517e-06	0
    Cl(f):	-2.02853e-05	-1.98215e-05	-4.63765e-07	0
    Cl(r):	-2.04829e-05	-1.98215e-05	-6.61408e-07	0
    CmPitch:	9.88216e-08	2.65536e-16	9.88216e-08	0
    CmRoll:	2.03841e-05	1.98215e-05	5.62586e-07	0
    CmYaw:	0.00075602	0.000733523	2.24974e-05	0
    Cs:	-1.99929e-23	-2.29318e-23	2.93888e-24	0
    Cs(f):	0.00075602	0.000733523	2.24974e-05	0
    Cs(r):	-0.00075602	-0.000733523	-2.24974e-05	0

    writing force and moment coefficient files.

Time = 5

smoothSolver:  Solving for Ux, Initial residual = 0.0424834, Final residual = 9.41808e-13, No Iterations 74
smoothSolver:  Solving for Uy, Initial residual = 0.193497, Final residual = 8.01051e-13, No Iterations 79
GAMG:  Solving for p, Initial residual = 0.0667252, Final residual = 9.3743e-13, No Iterations 43
time step continuity errors : sum local = 2.76883e-14, global = -9.34917e-16, cumulative = 3.73731e-15
smoothSolver:  Solving for omega, Initial residual = 0.0278696, Final residual = 9.48581e-13, No Iterations 62
smoothSolver:  Solving for k, Initial residual = 0.0935826, Final residual = 7.82114e-13, No Iterations 62
ExecutionTime = 8.96 s  ClockTime = 9 s

forceCoeffs forceCoeffs write:
    Coefficient	Total	Pressure	Viscous	Internal
    Cd:	0.0016449	0.00159467	5.02318e-05	0
    Cd(f):	0.000847286	0.000821417	2.58688e-05	0
    Cd(r):	0.000797614	0.000773251	2.4363e-05	0
    Cl:	-4.96719e-05	-4.81661e-05	-1.50573e-06	0
    Cl(f):	-2.4627e-05	-2.40831e-05	-5.43956e-07	0
    Cl(r):	-2.50448e-05	-2.40831e-05	-9.61778e-07	0
    CmPitch:	2.08911e-07	3.4858e-16	2.08911e-07	0
    CmRoll:	2.48359e-05	2.40831e-05	7.52867e-07	0
    CmYaw:	0.00082245	0.000797334	2.51159e-05	0
    Cs:	-3.65942e-23	-2.97325e-23	-6.86165e-24	0
    Cs(f):	0.00082245	0.000797334	2.51159e-05	0
    Cs(r):	-0.00082245	-0.000797334	-2.51159e-05	0

    writing force and moment coefficient files.

Time = 6

smoothSolver:  Solving for Ux, Initial residual = 0.0319872, Final residual = 9.7491e-13, No Iterations 74
smoothSolver:  Solving for Uy, Initial residual = 0.140554, Final residual = 7.68574e-13, No Iterations 79
GAMG:  Solving for p, Initial residual = 0.063607, Final residual = 9.12095e-13, No Iterations 42
time step continuity errors : sum local = 2.32445e-14, global = -7.86229e-16, cumulative = 2.95109e-15
smoothSolver:  Solving for omega, Initial residual = 0.0226834, Final residual = 8.34592e-13, No Iterations 62
smoothSolver:  Solving for k, Initial residual = 0.0734189, Final residual = 9.49796e-13, No Iterations 61
ExecutionTime = 9.7 s  ClockTime = 10 s

forceCoeffs forceCoeffs write:
    Coefficient	Total	Pressure	Viscous	Internal
    Cd:	0.00172759	0.001673	5.45931e-05	0
    Cd(f):	0.000889876	0.000861686	2.81903e-05	0
    Cd(r):	0.000837719	0.000811316	2.64028e-05	0
    Cl:	-5.21578e-05	-5.03703e-05	-1.78752e-06	0
    Cl(f):	-2.57687e-05	-2.51851e-05	-5.83543e-07	0
    Cl(r):	-2.63891e-05	-2.51851e-05	-1.20397e-06	0
    CmPitch:	3.10215e-07	4.12448e-16	3.10215e-07	0
    CmRoll:	2.60789e-05	2.51851e-05	8.93758e-07	0
    CmYaw:	0.000863797	0.000836501	2.72965e-05	0
    Cs:	-4.62084e-23	-3.48556e-23	-1.13528e-23	0
    Cs(f):	0.000863797	0.000836501	2.72965e-05	0
    Cs(r):	-0.000863797	-0.000836501	-2.72965e-05	0

    writing force and moment coefficient files.

Time = 7

smoothSolver:  Solving for Ux, Initial residual = 0.0268585, Final residual = 7.39508e-13, No Iterations 75
smoothSolver:  Solving for Uy, Initial residual = 0.112492, Final residual = 9.69778e-13, No Iterations 78
GAMG:  Solving for p, Initial residual = 0.0630626, Final residual = 8.59927e-13, No Iterations 40
time step continuity errors : sum local = 1.89975e-14, global = -6.16674e-16, cumulative = 2.33441e-15
smoothSolver:  Solving for omega, Initial residual = 0.0194885, Final residual = 7.5248e-13, No Iterations 62
smoothSolver:  Solving for k, Initial residual = 0.0639745, Final residual = 8.63005e-13, No Iterations 61
ExecutionTime = 10.43 s  ClockTime = 10 s

forceCoeffs forceCoeffs write:
    Coefficient	Total	Pressure	Viscous	Internal
    Cd:	0.00176136	0.0017036	5.77522e-05	0
    Cd(f):	0.000905145	0.000875288	2.98573e-05	0
    Cd(r):	0.00085621	0.000828315	2.78949e-05	0
    Cl:	-4.89358e-05	-4.69733e-05	-1.96247e-06	0
    Cl(f):	-2.40692e-05	-2.34867e-05	-5.8255e-07	0
    Cl(r):	-2.48666e-05	-2.34867e-05	-1.37992e-06	0
    CmPitch:	3.98686e-07	4.39126e-16	3.98686e-07	0
    CmRoll:	2.44679e-05	2.34867e-05	9.81236e-07	0
    CmYaw:	0.000880678	0.000851801	2.88761e-05	0
    Cs:	-5.45991e-23	-3.85782e-23	-1.60209e-23	0
    Cs(f):	0.000880678	0.000851801	2.88761e-05	0
    Cs(r):	-0.000880678	-0.000851801	-2.88761e-05	0

    writing force and moment coefficient files.

Time = 8

smoothSolver:  Solving for Ux, Initial residual = 0.0237598, Final residual = 7.52309e-13, No Iterations 75
smoothSolver:  Solving for Uy, Initial residual = 0.0963368, Final residual = 8.9057e-13, No Iterations 78
GAMG:  Solving for p, Initial residual = 0.0569266, Final residual = 7.77391e-13, No Iterations 41
time step continuity errors : sum local = 1.69306e-14, global = -6.43647e-16, cumulative = 1.69076e-15
smoothSolver:  Solving for omega, Initial residual = 0.0171125, Final residual = 7.95974e-13, No Iterations 61
smoothSolver:  Solving for k, Initial residual = 0.0556573, Final residual = 7.58921e-13, No Iterations 61
ExecutionTime = 11.17 s  ClockTime = 11 s

forceCoeffs forceCoeffs write:
    Coefficient	Total	Pressure	Viscous	Internal
    Cd:	0.00176189	0.00170216	5.97291e-05	0
    Cd(f):	0.000901859	0.000870971	3.08881e-05	0
    Cd(r):	0.000860034	0.000831193	2.8841e-05	0
    Cl:	-4.1825e-05	-3.97778e-05	-2.04716e-06	0
    Cl(f):	-2.0443e-05	-1.98889e-05	-5.54122e-07	0
    Cl(r):	-2.1382e-05	-1.98889e-05	-1.49304e-06	0
    CmPitch:	4.69461e-07	4.12234e-16	4.69461e-07	0
    CmRoll:	2.09125e-05	1.98889e-05	1.02358e-06	0
    CmYaw:	0.000880947	0.000851082	2.98645e-05	0
    Cs:	-6.11105e-23	-4.13566e-23	-1.97539e-23	0
    Cs(f):	0.000880947	0.000851082	2.98645e-05	0
    Cs(r):	-0.000880947	-0.000851082	-2.98645e-05	0

    writing force and moment coefficient files.

Time = 9

smoothSolver:  Solving for Ux, Initial residual = 0.0217363, Final residual = 7.60411e-13, No Iterations 75
smoothSolver:  Solving for Uy, Initial residual = 0.0848984, Final residual = 8.17827e-13, No Iterations 78
GAMG:  Solving for p, Initial residual = 0.0483898, Final residual = 6.36938e-13, No Iterations 40
time step continuity errors : sum local = 1.484e-14, global = -7.94316e-16, cumulative = 8.96449e-16
smoothSolver:  Solving for omega, Initial residual = 0.0152481, Final residual = 8.43963e-13, No Iterations 60
smoothSolver:  Solving for k, Initial residual = 0.0512873, Final residual = 9.07886e-13, No Iterations 60
ExecutionTime = 11.9 s  ClockTime = 12 s

forceCoeffs forceCoeffs write:
    Coefficient	Total	Pressure	Viscous	Internal
    Cd:	0.00174476	0.00168395	6.08116e-05	0
    Cd(f):	0.00088763	0.000856228	3.14014e-05	0
    Cd(r):	0.000857131	0.000827721	2.94101e-05	0
    Cl:	-3.04986e-05	-2.85074e-05	-1.99129e-06	0
    Cl(f):	-1.47521e-05	-1.42537e-05	-4.98451e-07	0
    Cl(r):	-1.57465e-05	-1.42537e-05	-1.49284e-06	0
    CmPitch:	4.97195e-07	2.85283e-16	4.97195e-07	0
    CmRoll:	1.52493e-05	1.42537e-05	9.95646e-07	0
    CmYaw:	0.00087238	0.000841975	3.04058e-05	0
    Cs:	-6.40221e-23	-4.34679e-23	-2.05542e-23	0
    Cs(f):	0.00087238	0.000841975	3.04058e-05	0
    Cs(r):	-0.00087238	-0.000841975	-3.04058e-05	0

    writing force and moment coefficient files.

Time = 10

smoothSolver:  Solving for Ux, Initial residual = 0.0202638, Final residual = 7.66968e-13, No Iterations 75
smoothSolver:  Solving for Uy, Initial residual = 0.0761299, Final residual = 7.5044e-13, No Iterations 78
GAMG:  Solving for p, Initial residual = 0.0418492, Final residual = 6.99379e-13, No Iterations 42
time step continuity errors : sum local = 1.73229e-14, global = -7.33877e-16, cumulative = 1.62572e-16
smoothSolver:  Solving for omega, Initial residual = 0.0136014, Final residual = 9.10187e-13, No Iterations 59
smoothSolver:  Solving for k, Initial residual = 0.0464264, Final residual = 7.79013e-13, No Iterations 60
ExecutionTime = 12.63 s  ClockTime = 13 s

forceCoeffs forceCoeffs write:
    Coefficient	Total	Pressure	Viscous	Internal
    Cd:	0.00172126	0.00166003	6.12306e-05	0
    Cd(f):	0.000869935	0.000838453	3.14824e-05	0
    Cd(r):	0.000851323	0.000821575	2.97483e-05	0
    Cl:	-1.8612e-05	-1.68779e-05	-1.73409e-06	0
    Cl(f):	-8.87643e-06	-8.43895e-06	-4.37474e-07	0
    Cl(r):	-9.73557e-06	-8.43895e-06	-1.29662e-06	0
    CmPitch:	4.29573e-07	3.4353e-16	4.29573e-07	0
    CmRoll:	9.306e-06	8.43895e-06	8.67047e-07	0
    CmYaw:	0.000860629	0.000830014	3.06153e-05	0
    Cs:	-6.47556e-23	-4.52213e-23	-1.95344e-23	0
    Cs(f):	0.000860629	0.000830014	3.06153e-05	0
    Cs(r):	-0.000860629	-0.000830014	-3.06153e-05	0

    writing force and moment coefficient files.

Time = 11

smoothSolver:  Solving for Ux, Initial residual = 0.0191632, Final residual = 7.72269e-13, No Iterations 75
smoothSolver:  Solving for Uy, Initial residual = 0.0689875, Final residual = 9.36645e-13, No Iterations 77
GAMG:  Solving for p, Initial residual = 0.036729, Final residual = 7.89277e-13, No Iterations 42
time step continuity errors : sum local = 2.06744e-14, global = -8.78563e-16, cumulative = -7.15991e-16
smoothSolver:  Solving for omega, Initial residual = 0.0128321, Final residual = 9.93854e-13, No Iterations 58
smoothSolver:  Solving for k, Initial residual = 0.0440494, Final residual = 9.36379e-13, No Iterations 68
ExecutionTime = 13.38 s  ClockTime = 13 s

forceCoeffs forceCoeffs write:
    Coefficient	Total	Pressure	Viscous	Internal
    Cd:	0.00170003	0.00163875	6.12777e-05	0
    Cd(f):	0.000851594	0.00082027	3.13244e-05	0
    Cd(r):	0.000848437	0.000818484	2.99533e-05	0
    Cl:	-3.15687e-06	-1.78585e-06	-1.37102e-06	0
    Cl(f):	-1.23339e-06	-8.92926e-07	-3.40466e-07	0
    Cl(r):	-1.92348e-06	-8.92926e-07	-1.03056e-06	0
    CmPitch:	3.45045e-07	4.52195e-16	3.45045e-07	0
    CmRoll:	1.57844e-06	8.92926e-07	6.85511e-07	0
    CmYaw:	0.000850016	0.000819377	3.06389e-05	0
    Cs:	-6.59372e-23	-4.65501e-23	-1.93872e-23	0
    Cs(f):	0.000850016	0.000819377	3.06389e-05	0
    Cs(r):	-0.000850016	-0.000819377	-3.06389e-05	0

    writing force and moment coefficient files.

Time = 12

smoothSolver:  Solving for Ux, Initial residual = 0.0183308, Final residual = 7.77055e-13, No Iterations 75
smoothSolver:  Solving for Uy, Initial residual = 0.0632615, Final residual = 8.61014e-13, No Iterations 77
GAMG:  Solving for p, Initial residual = 0.0324641, Final residual = 7.67641e-13, No Iterations 42
time step continuity errors : sum local = 2.11713e-14, global = -9.18968e-16, cumulative = -1.63496e-15
smoothSolver:  Solving for omega, Initial residual = 0.0119171, Final residual = 7.5898e-13, No Iterations 58
smoothSolver:  Solving for k, Initial residual = 0.041177, Final residual = 8.99055e-13, No Iterations 65
ExecutionTime = 14.12 s  ClockTime = 14 s

forceCoeffs forceCoeffs write:
    Coefficient	Total	Pressure	Viscous	Internal
    Cd:	0.00168542	0.00162432	6.11049e-05	0
    Cd(f):	0.000837549	0.000806531	3.10183e-05	0
    Cd(r):	0.000847875	0.000817788	3.00866e-05	0
    Cl:	1.03257e-05	1.12573e-05	-9.31628e-07	0
    Cl(f):	5.39665e-06	5.62867e-06	-2.32021e-07	0
    Cl(r):	4.92906e-06	5.62867e-06	-6.99607e-07	0
    CmPitch:	2.33793e-07	4.55831e-16	2.33793e-07	0
    CmRoll:	-5.16285e-06	-5.62867e-06	4.65814e-07	0
    CmYaw:	0.000842712	0.000812159	3.05524e-05	0
    Cs:	-6.75641e-23	-4.78225e-23	-1.97416e-23	0
    Cs(f):	0.000842712	0.000812159	3.05524e-05	0
    Cs(r):	-0.000842712	-0.000812159	-3.05524e-05	0

    writing force and moment coefficient files.

Time = 13

smoothSolver:  Solving for Ux, Initial residual = 0.0176834, Final residual = 7.809e-13, No Iterations 75
smoothSolver:  Solving for Uy, Initial residual = 0.0586493, Final residual = 7.98949e-13, No Iterations 77
GAMG:  Solving for p, Initial residual = 0.0289419, Final residual = 6.98885e-13, No Iterations 42
time step continuity errors : sum local = 2.02035e-14, global = -8.84228e-16, cumulative = -2.51919e-15
smoothSolver:  Solving for omega, Initial residual = 0.0114337, Final residual = 8.37487e-13, No Iterations 57
smoothSolver:  Solving for k, Initial residual = 0.0392171, Final residual = 7.38602e-13, No Iterations 60
ExecutionTime = 14.84 s  ClockTime = 15 s

forceCoeffs forceCoeffs write:
    Coefficient	Total	Pressure	Viscous	Internal
    Cd:	0.00168041	0.00161961	6.08012e-05	0
    Cd(f):	0.000827376	0.000796737	3.06387e-05	0
    Cd(r):	0.000853035	0.000822872	3.01626e-05	0
    Cl:	2.56594e-05	2.61354e-05	-4.76064e-07	0
    Cl(f):	1.29626e-05	1.30677e-05	-1.05156e-07	0
    Cl(r):	1.26968e-05	1.30677e-05	-3.70908e-07	0
    CmPitch:	1.32876e-07	1.42892e-16	1.32876e-07	0
    CmRoll:	-1.28297e-05	-1.30677e-05	2.38032e-07	0
    CmYaw:	0.000840205	0.000809805	3.04006e-05	0
    Cs:	-6.76932e-23	-4.87986e-23	-1.88947e-23	0
    Cs(f):	0.000840205	0.000809805	3.04006e-05	0
    Cs(r):	-0.000840205	-0.000809805	-3.04006e-05	0

    writing force and moment coefficient files.

Time = 14

smoothSolver:  Solving for Ux, Initial residual = 0.0171353, Final residual = 7.84049e-13, No Iterations 75
smoothSolver:  Solving for Uy, Initial residual = 0.0548795, Final residual = 7.48544e-13, No Iterations 77
GAMG:  Solving for p, Initial residual = 0.0260231, Final residual = 6.48441e-13, No Iterations 42
time step continuity errors : sum local = 1.95714e-14, global = -8.62394e-16, cumulative = -3.38158e-15
smoothSolver:  Solving for omega, Initial residual = 0.0108286, Final residual = 7.66621e-13, No Iterations 57
smoothSolver:  Solving for k, Initial residual = 0.0378629, Final residual = 8.35788e-13, No Iterations 59
ExecutionTime = 15.57 s  ClockTime = 16 s

forceCoeffs forceCoeffs write:
    Coefficient	Total	Pressure	Viscous	Internal
    Cd:	0.00168549	0.00162503	6.04548e-05	0
    Cd(f):	0.000823312	0.00079309	3.02214e-05	0
    Cd(r):	0.000862174	0.000831941	3.02334e-05	0
    Cl:	3.88625e-05	3.88506e-05	1.19225e-08	0
    Cl(f):	1.94759e-05	1.94253e-05	5.05771e-08	0
    Cl(r):	1.93866e-05	1.94253e-05	-3.86546e-08	0
    CmPitch:	4.46158e-08	-2.65739e-16	4.46158e-08	0
    CmRoll:	-1.94312e-05	-1.94253e-05	-5.96127e-09	0
    CmYaw:	0.000842743	0.000812515	3.02274e-05	0
    Cs:	-6.71353e-23	-4.95967e-23	-1.75386e-23	0
    Cs(f):	0.000842743	0.000812515	3.02274e-05	0
    Cs(r):	-0.000842743	-0.000812515	-3.02274e-05	0

    writing force and moment coefficient files.

Time = 15

smoothSolver:  Solving for Ux, Initial residual = 0.016665, Final residual = 7.87907e-13, No Iterations 75
smoothSolver:  Solving for Uy, Initial residual = 0.051479, Final residual = 9.59271e-13, No Iterations 76
GAMG:  Solving for p, Initial residual = 0.0236027, Final residual = 6.03682e-13, No Iterations 42
time step continuity errors : sum local = 1.8949e-14, global = -8.35656e-16, cumulative = -4.21724e-15
smoothSolver:  Solving for omega, Initial residual = 0.0105627, Final residual = 9.29482e-13, No Iterations 55
smoothSolver:  Solving for k, Initial residual = 0.03586, Final residual = 7.99601e-13, No Iterations 58
ExecutionTime = 16.3 s  ClockTime = 16 s

forceCoeffs forceCoeffs write:
    Coefficient	Total	Pressure	Viscous	Internal
    Cd:	0.00170023	0.00164007	6.01605e-05	0
    Cd(f):	0.000823858	0.000794042	2.98161e-05	0
    Cd(r):	0.00087637	0.000846026	3.03444e-05	0
    Cl:	5.25118e-05	5.19835e-05	5.28256e-07	0
    Cl(f):	2.62229e-05	2.59918e-05	2.31095e-07	0
    Cl(r):	2.62889e-05	2.59918e-05	2.97161e-07	0
    CmPitch:	-3.30332e-08	-4.51835e-16	-3.30332e-08	0
    CmRoll:	-2.62559e-05	-2.59918e-05	-2.64128e-07	0
    CmYaw:	0.000850114	0.000820034	3.00802e-05	0
    Cs:	-6.67096e-23	-5.00322e-23	-1.66774e-23	0
    Cs(f):	0.000850114	0.000820034	3.00802e-05	0
    Cs(r):	-0.000850114	-0.000820034	-3.00802e-05	0

    writing force and moment coefficient files.

Time = 16

smoothSolver:  Solving for Ux, Initial residual = 0.0162683, Final residual = 7.92554e-13, No Iterations 75
smoothSolver:  Solving for Uy, Initial residual = 0.048364, Final residual = 9.01151e-13, No Iterations 76
GAMG:  Solving for p, Initial residual = 0.0215963, Final residual = 5.85087e-13, No Iterations 42
time step continuity errors : sum local = 1.89986e-14, global = -8.35516e-16, cumulative = -5.05275e-15
smoothSolver:  Solving for omega, Initial residual = 0.0101268, Final residual = 9.76505e-13, No Iterations 59
smoothSolver:  Solving for k, Initial residual = 0.034497, Final residual = 7.81109e-13, No Iterations 60
ExecutionTime = 17.04 s  ClockTime = 17 s

forceCoeffs forceCoeffs write:
    Coefficient	Total	Pressure	Viscous	Internal
    Cd:	0.00172249	0.00166256	5.99259e-05	0
    Cd(f):	0.000828054	0.000798601	2.94537e-05	0
    Cd(r):	0.000894433	0.000863961	3.04722e-05	0
    Cl:	6.63785e-05	6.53601e-05	1.01842e-06	0
    Cl(f):	3.30847e-05	3.26801e-05	4.04626e-07	0
    Cl(r):	3.32939e-05	3.26801e-05	6.13796e-07	0
    CmPitch:	-1.04585e-07	-5.97327e-16	-1.04585e-07	0
    CmRoll:	-3.31893e-05	-3.26801e-05	-5.09211e-07	0
    CmYaw:	0.000861244	0.000831281	2.9963e-05	0
    Cs:	-6.57617e-23	-5.01562e-23	-1.56054e-23	0
    Cs(f):	0.000861244	0.000831281	2.9963e-05	0
    Cs(r):	-0.000861244	-0.000831281	-2.9963e-05	0

    writing force and moment coefficient files.

Time = 17

smoothSolver:  Solving for Ux, Initial residual = 0.0159381, Final residual = 7.97208e-13, No Iterations 75
smoothSolver:  Solving for Uy, Initial residual = 0.0455532, Final residual = 8.47164e-13, No Iterations 76
GAMG:  Solving for p, Initial residual = 0.0198986, Final residual = 5.7201e-13, No Iterations 42
time step continuity errors : sum local = 1.91111e-14, global = -8.41519e-16, cumulative = -5.89427e-15
smoothSolver:  Solving for omega, Initial residual = 0.00995341, Final residual = 7.7939e-13, No Iterations 54
smoothSolver:  Solving for k, Initial residual = 0.0336529, Final residual = 7.69095e-13, No Iterations 55
ExecutionTime = 17.78 s  ClockTime = 18 s

forceCoeffs forceCoeffs write:
    Coefficient	Total	Pressure	Viscous	Internal
    Cd:	0.00175033	0.00169048	5.9843e-05	0
    Cd(f):	0.000834647	0.000805435	2.92121e-05	0
    Cd(r):	0.000915678	0.000885047	3.06309e-05	0
    Cl:	8.10314e-05	7.96127e-05	1.41873e-06	0
    Cl(f):	4.03655e-05	3.98063e-05	5.59159e-07	0
    Cl(r):	4.06659e-05	3.98063e-05	8.59573e-07	0
    CmPitch:	-1.50207e-07	-7.6616e-16	-1.50207e-07	0
    CmRoll:	-4.05157e-05	-3.98063e-05	-7.09366e-07	0
    CmYaw:	0.000875163	0.000845241	2.99215e-05	0
    Cs:	-6.54423e-23	-4.9992e-23	-1.54503e-23	0
    Cs(f):	0.000875163	0.000845241	2.99215e-05	0
    Cs(r):	-0.000875163	-0.000845241	-2.99215e-05	0

    writing force and moment coefficient files.

Time = 18

smoothSolver:  Solving for Ux, Initial residual = 0.0156643, Final residual = 7.99959e-13, No Iterations 75
smoothSolver:  Solving for Uy, Initial residual = 0.0430571, Final residual = 8.00849e-13, No Iterations 76
GAMG:  Solving for p, Initial residual = 0.0185348, Final residual = 9.95278e-13, No Iterations 41
time step continuity errors : sum local = 3.39907e-14, global = -1.20598e-15, cumulative = -7.10025e-15
smoothSolver:  Solving for omega, Initial residual = 0.00958171, Final residual = 7.99307e-13, No Iterations 53
smoothSolver:  Solving for k, Initial residual = 0.0331809, Final residual = 9.36603e-13, No Iterations 56
ExecutionTime = 18.49 s  ClockTime = 18 s

forceCoeffs forceCoeffs write:
    Coefficient	Total	Pressure	Viscous	Internal
    Cd:	0.00178135	0.00172143	5.9924e-05	0
    Cd(f):	0.000842057	0.000812977	2.90801e-05	0
    Cd(r):	0.000939296	0.000908453	3.08439e-05	0
    Cl:	9.72397e-05	9.5476e-05	1.76373e-06	0
    Cl(f):	4.84376e-05	4.7738e-05	6.99575e-07	0
    Cl(r):	4.88022e-05	4.7738e-05	1.06415e-06	0
    CmPitch:	-1.8229e-07	-6.61418e-16	-1.8229e-07	0
    CmRoll:	-4.86199e-05	-4.7738e-05	-8.81864e-07	0
    CmYaw:	0.000890677	0.000860715	2.9962e-05	0
    Cs:	-6.39758e-23	-4.95276e-23	-1.44482e-23	0
    Cs(f):	0.000890677	0.000860715	2.9962e-05	0
    Cs(r):	-0.000890677	-0.000860715	-2.9962e-05	0

    writing force and moment coefficient files.

Time = 19

smoothSolver:  Solving for Ux, Initial residual = 0.0154593, Final residual = 8.00449e-13, No Iterations 75
smoothSolver:  Solving for Uy, Initial residual = 0.0406846, Final residual = 7.64239e-13, No Iterations 76
GAMG:  Solving for p, Initial residual = 0.0174148, Final residual = 9.64106e-13, No Iterations 41
time step continuity errors : sum local = 3.34506e-14, global = -1.2117e-15, cumulative = -8.31195e-15
smoothSolver:  Solving for omega, Initial residual = 0.0093415, Final residual = 8.16055e-13, No Iterations 50
smoothSolver:  Solving for k, Initial residual = 0.0319816, Final residual = 9.63136e-13, No Iterations 56
ExecutionTime = 19.19 s  ClockTime = 19 s

forceCoeffs forceCoeffs write:
    Coefficient	Total	Pressure	Viscous	Internal
    Cd:	0.00181314	0.00175294	6.01965e-05	0
    Cd(f):	0.000849334	0.000820244	2.90906e-05	0
    Cd(r):	0.000963805	0.000932699	3.11059e-05	0
    Cl:	0.000114471	0.000112455	2.01529e-06	0
    Cl(f):	5.70597e-05	5.62277e-05	8.32011e-07	0
    Cl(r):	5.74109e-05	5.62277e-05	1.18328e-06	0
    CmPitch:	-1.75633e-07	-3.58558e-16	-1.75633e-07	0
    CmRoll:	-5.72353e-05	-5.62277e-05	-1.00764e-06	0
    CmYaw:	0.000906569	0.000876471	3.00982e-05	0
    Cs:	-6.25811e-23	-4.88696e-23	-1.37115e-23	0
    Cs(f):	0.000906569	0.000876471	3.00982e-05	0
    Cs(r):	-0.000906569	-0.000876471	-3.00982e-05	0

    writing force and moment coefficient files.

Time = 20

smoothSolver:  Solving for Ux, Initial residual = 0.0152952, Final residual = 7.98963e-13, No Iterations 75
smoothSolver:  Solving for Uy, Initial residual = 0.0384291, Final residual = 7.37096e-13, No Iterations 76
GAMG:  Solving for p, Initial residual = 0.0164812, Final residual = 5.66171e-13, No Iterations 42
time step continuity errors : sum local = 1.98617e-14, global = -9.0779e-16, cumulative = -9.21974e-15
smoothSolver:  Solving for omega, Initial residual = 0.0090102, Final residual = 9.38563e-13, No Iterations 48
smoothSolver:  Solving for k, Initial residual = 0.0310448, Final residual = 7.24772e-13, No Iterations 52
ExecutionTime = 19.88 s  ClockTime = 20 s

forceCoeffs forceCoeffs write:
    Coefficient	Total	Pressure	Viscous	Internal
    Cd:	0.00184408	0.0017834	6.06782e-05	0
    Cd(f):	0.000855789	0.000826534	2.92546e-05	0
    Cd(r):	0.000988288	0.000956864	3.14237e-05	0
    Cl:	0.000132499	0.000130329	2.16912e-06	0
    Cl(f):	6.61172e-05	6.51647e-05	9.52439e-07	0
    Cl(r):	6.63814e-05	6.51647e-05	1.21668e-06	0
    CmPitch:	-1.32122e-07	1.61437e-16	-1.32122e-07	0
    CmRoll:	-6.62493e-05	-6.51647e-05	-1.08456e-06	0
    CmYaw:	0.000922038	0.000891699	3.03391e-05	0
    Cs:	-6.05503e-23	-4.80829e-23	-1.24674e-23	0
    Cs(f):	0.000922038	0.000891699	3.03391e-05	0
    Cs(r):	-0.000922038	-0.000891699	-3.03391e-05	0

    writing force and moment coefficient files.

Time = 21

smoothSolver:  Solving for Ux, Initial residual = 0.0151569, Final residual = 7.96305e-13, No Iterations 75
smoothSolver:  Solving for Uy, Initial residual = 0.0362349, Final residual = 9.80442e-13, No Iterations 75
GAMG:  Solving for p, Initial residual = 0.0157175, Final residual = 6.55895e-13, No Iterations 42
time step continuity errors : sum local = 2.30877e-14, global = -1.05377e-15, cumulative = -1.02735e-14
smoothSolver:  Solving for omega, Initial residual = 0.0088125, Final residual = 6.89643e-13, No Iterations 47
smoothSolver:  Solving for k, Initial residual = 0.030114, Final residual = 9.31629e-13, No Iterations 51
ExecutionTime = 20.58 s  ClockTime = 21 s

forceCoeffs forceCoeffs write:
    Coefficient	Total	Pressure	Viscous	Internal
    Cd:	0.00187191	0.00181062	6.12929e-05	0
    Cd(f):	0.000860963	0.000831462	2.9501e-05	0
    Cd(r):	0.00101095	0.000979155	3.17919e-05	0
    Cl:	0.000149984	0.000147693	2.29089e-06	0
    Cl(f):	7.49195e-05	7.38464e-05	1.07315e-06	0
    Cl(r):	7.50641e-05	7.38464e-05	1.21774e-06	0
    CmPitch:	-7.22957e-08	7.94101e-16	-7.22957e-08	0
    CmRoll:	-7.49918e-05	-7.38464e-05	-1.14545e-06	0
    CmYaw:	0.000935955	0.000905308	3.06464e-05	0
    Cs:	-5.87819e-23	-4.72512e-23	-1.15307e-23	0
    Cs(f):	0.000935955	0.000905308	3.06464e-05	0
    Cs(r):	-0.000935955	-0.000905308	-3.06464e-05	0

    writing force and moment coefficient files.

Time = 22

smoothSolver:  Solving for Ux, Initial residual = 0.0150188, Final residual = 7.92406e-13, No Iterations 75
smoothSolver:  Solving for Uy, Initial residual = 0.0340203, Final residual = 9.63215e-13, No Iterations 75
GAMG:  Solving for p, Initial residual = 0.0150789, Final residual = 8.8087e-13, No Iterations 43
time step continuity errors : sum local = 3.09249e-14, global = -1.2022e-15, cumulative = -1.14757e-14
smoothSolver:  Solving for omega, Initial residual = 0.00846402, Final residual = 8.19359e-13, No Iterations 52
smoothSolver:  Solving for k, Initial residual = 0.0302307, Final residual = 7.06337e-13, No Iterations 52
ExecutionTime = 21.29 s  ClockTime = 21 s

forceCoeffs forceCoeffs write:
    Coefficient	Total	Pressure	Viscous	Internal
    Cd:	0.00189493	0.00183299	6.19418e-05	0
    Cd(f):	0.000863715	0.000833958	2.97575e-05	0
    Cd(r):	0.00103121	0.000999028	3.21843e-05	0
    Cl:	0.000167497	0.00016507	2.42678e-06	0
    Cl(f):	8.37493e-05	8.2535e-05	1.21431e-06	0
    Cl(r):	8.37474e-05	8.2535e-05	1.21247e-06	0
    CmPitch:	9.2274e-10	1.2779e-15	9.22739e-10	0
    CmRoll:	-8.37483e-05	-8.2535e-05	-1.21339e-06	0
    CmYaw:	0.000947464	0.000916493	3.09709e-05	0
    Cs:	-5.68742e-23	-4.63601e-23	-1.0514e-23	0
    Cs(f):	0.000947464	0.000916493	3.09709e-05	0
    Cs(r):	-0.000947464	-0.000916493	-3.09709e-05	0

    writing force and moment coefficient files.

Time = 23

smoothSolver:  Solving for Ux, Initial residual = 0.0148649, Final residual = 7.8748e-13, No Iterations 75
smoothSolver:  Solving for Uy, Initial residual = 0.031838, Final residual = 9.53649e-13, No Iterations 75
GAMG:  Solving for p, Initial residual = 0.0145586, Final residual = 7.08223e-13, No Iterations 41
time step continuity errors : sum local = 2.46668e-14, global = 8.88242e-16, cumulative = -1.05875e-14
smoothSolver:  Solving for omega, Initial residual = 0.00815502, Final residual = 9.00841e-13, No Iterations 46
smoothSolver:  Solving for k, Initial residual = 0.0291312, Final residual = 8.31181e-13, No Iterations 53
ExecutionTime = 21.99 s  ClockTime = 22 s

forceCoeffs forceCoeffs write:
    Coefficient	Total	Pressure	Viscous	Internal
    Cd:	0.00191188	0.00184931	6.25657e-05	0
    Cd(f):	0.000863192	0.000833216	2.99757e-05	0
    Cd(r):	0.00104869	0.0010161	3.259e-05	0
    Cl:	0.000185494	0.00018288	2.61422e-06	0
    Cl(f):	9.27966e-05	9.14398e-05	1.35685e-06	0
    Cl(r):	9.26972e-05	9.14398e-05	1.25737e-06	0
    CmPitch:	4.97372e-08	1.62711e-15	4.97372e-08	0
    CmRoll:	-9.27469e-05	-9.14398e-05	-1.30711e-06	0
    CmYaw:	0.000955939	0.000924656	3.12829e-05	0
    Cs:	-5.5772e-23	-4.53556e-23	-1.04163e-23	0
    Cs(f):	0.000955939	0.000924656	3.12829e-05	0
    Cs(r):	-0.000955939	-0.000924656	-3.12829e-05	0

    writing force and moment coefficient files.

Time = 24

smoothSolver:  Solving for Ux, Initial residual = 0.0146888, Final residual = 7.81982e-13, No Iterations 75
smoothSolver:  Solving for Uy, Initial residual = 0.0297689, Final residual = 9.49904e-13, No Iterations 75
GAMG:  Solving for p, Initial residual = 0.0141536, Final residual = 8.28227e-13, No Iterations 40
time step continuity errors : sum local = 2.84828e-14, global = 9.67524e-16, cumulative = -9.61995e-15
smoothSolver:  Solving for omega, Initial residual = 0.00783816, Final residual = 9.15323e-13, No Iterations 50
smoothSolver:  Solving for k, Initial residual = 0.0279065, Final residual = 9.44081e-13, No Iterations 50
ExecutionTime = 22.69 s  ClockTime = 23 s

forceCoeffs forceCoeffs write:
    Coefficient	Total	Pressure	Viscous	Internal
    Cd:	0.00192223	0.00185916	6.30719e-05	0
    Cd(f):	0.000858926	0.000828811	3.01145e-05	0
    Cd(r):	0.00106331	0.00103035	3.29574e-05	0
    Cl:	0.000204381	0.000201538	2.8429e-06	0
    Cl(f):	0.000102278	0.000100769	1.50922e-06	0
    Cl(r):	0.000102103	0.000100769	1.33368e-06	0
    CmPitch:	8.77714e-08	1.85891e-15	8.77714e-08	0
    CmRoll:	-0.00010219	-0.000100769	-1.42145e-06	0
    CmYaw:	0.000961116	0.00092958	3.15359e-05	0
    Cs:	-5.51515e-23	-4.42228e-23	-1.09287e-23	0
    Cs(f):	0.000961116	0.00092958	3.15359e-05	0
    Cs(r):	-0.000961116	-0.00092958	-3.15359e-05	0

    writing force and moment coefficient files.

Time = 25

smoothSolver:  Solving for Ux, Initial residual = 0.0144802, Final residual = 7.76104e-13, No Iterations 75
smoothSolver:  Solving for Uy, Initial residual = 0.0279218, Final residual = 9.51054e-13, No Iterations 75
GAMG:  Solving for p, Initial residual = 0.0137734, Final residual = 6.54599e-13, No Iterations 40
time step continuity errors : sum local = 2.21188e-14, global = 7.44589e-16, cumulative = -8.87536e-15
smoothSolver:  Solving for omega, Initial residual = 0.00759039, Final residual = 8.75546e-13, No Iterations 46
smoothSolver:  Solving for k, Initial residual = 0.0275424, Final residual = 8.00176e-13, No Iterations 53
ExecutionTime = 23.4 s  ClockTime = 23 s

forceCoeffs forceCoeffs write:
    Coefficient	Total	Pressure	Viscous	Internal
    Cd:	0.00192592	0.00186236	6.35638e-05	0
    Cd(f):	0.000850951	0.000820755	3.01959e-05	0
    Cd(r):	0.00107497	0.0010416	3.33678e-05	0
    Cl:	0.000224021	0.000220849	3.17193e-06	0
    Cl(f):	0.000112125	0.000110424	1.7006e-06	0
    Cl(r):	0.000111896	0.000110424	1.47133e-06	0
    CmPitch:	1.14631e-07	1.94358e-15	1.14631e-07	0
    CmRoll:	-0.00011201	-0.000110424	-1.58596e-06	0
    CmYaw:	0.000962961	0.00093118	3.17819e-05	0
    Cs:	-5.41849e-23	-4.30005e-23	-1.11844e-23	0
    Cs(f):	0.000962961	0.00093118	3.17819e-05	0
    Cs(r):	-0.000962961	-0.00093118	-3.17819e-05	0

    writing force and moment coefficient files.

Time = 26

smoothSolver:  Solving for Ux, Initial residual = 0.0142536, Final residual = 7.70526e-13, No Iterations 75
smoothSolver:  Solving for Uy, Initial residual = 0.0262574, Final residual = 9.54791e-13, No Iterations 75
GAMG:  Solving for p, Initial residual = 0.013464, Final residual = 8.82327e-13, No Iterations 39
time step continuity errors : sum local = 2.91807e-14, global = 1.01543e-15, cumulative = -7.85993e-15
smoothSolver:  Solving for omega, Initial residual = 0.00728636, Final residual = 7.2172e-13, No Iterations 50
smoothSolver:  Solving for k, Initial residual = 0.0267514, Final residual = 7.5401e-13, No Iterations 53
ExecutionTime = 24.09 s  ClockTime = 24 s

forceCoeffs forceCoeffs write:
    Coefficient	Total	Pressure	Viscous	Internal
    Cd:	0.00192328	0.00185937	6.39085e-05	0
    Cd(f):	0.000840153	0.000809981	3.01717e-05	0
    Cd(r):	0.00108312	0.00104939	3.37368e-05	0
    Cl:	0.000242971	0.000239406	3.56515e-06	0
    Cl(f):	0.000121623	0.000119703	1.9195e-06	0
    Cl(r):	0.000121349	0.000119703	1.64565e-06	0
    CmPitch:	1.36928e-07	1.93457e-15	1.36928e-07	0
    CmRoll:	-0.000121486	-0.000119703	-1.78257e-06	0
    CmYaw:	0.000961638	0.000929684	3.19543e-05	0
    Cs:	-5.28598e-23	-4.17344e-23	-1.11254e-23	0
    Cs(f):	0.000961638	0.000929684	3.19543e-05	0
    Cs(r):	-0.000961638	-0.000929684	-3.19543e-05	0

    writing force and moment coefficient files.

Time = 27

smoothSolver:  Solving for Ux, Initial residual = 0.0140225, Final residual = 7.65186e-13, No Iterations 75
smoothSolver:  Solving for Uy, Initial residual = 0.0247982, Final residual = 9.59509e-13, No Iterations 75
GAMG:  Solving for p, Initial residual = 0.0131797, Final residual = 8.32358e-13, No Iterations 39
time step continuity errors : sum local = 2.68773e-14, global = 9.07512e-16, cumulative = -6.95242e-15
smoothSolver:  Solving for omega, Initial residual = 0.00702563, Final residual = 7.67044e-13, No Iterations 49
smoothSolver:  Solving for k, Initial residual = 0.0262946, Final residual = 9.28283e-13, No Iterations 50
ExecutionTime = 24.79 s  ClockTime = 25 s

forceCoeffs forceCoeffs write:
    Coefficient	Total	Pressure	Viscous	Internal
    Cd:	0.00191611	0.001852	6.41058e-05	0
    Cd(f):	0.000827804	0.000797723	3.00814e-05	0
    Cd(r):	0.0010883	0.00105428	3.40244e-05	0
    Cl:	0.000260501	0.000256558	3.94306e-06	0
    Cl(f):	0.000130402	0.000128279	2.12325e-06	0
    Cl(r):	0.000130099	0.000128279	1.81981e-06	0
    CmPitch:	1.51721e-07	1.8587e-15	1.51721e-07	0
    CmRoll:	-0.00013025	-0.000128279	-1.97153e-06	0
    CmYaw:	0.000958055	0.000926002	3.20529e-05	0
    Cs:	-5.13162e-23	-4.04593e-23	-1.08569e-23	0
    Cs(f):	0.000958055	0.000926002	3.20529e-05	0
    Cs(r):	-0.000958055	-0.000926002	-3.20529e-05	0

    writing force and moment coefficient files.

Time = 28

smoothSolver:  Solving for Ux, Initial residual = 0.013775, Final residual = 7.60449e-13, No Iterations 75
smoothSolver:  Solving for Uy, Initial residual = 0.0235515, Final residual = 9.64373e-13, No Iterations 75
GAMG:  Solving for p, Initial residual = 0.0129115, Final residual = 8.31315e-13, No Iterations 39
time step continuity errors : sum local = 2.61249e-14, global = 8.46718e-16, cumulative = -6.1057e-15
smoothSolver:  Solving for omega, Initial residual = 0.0066994, Final residual = 9.57062e-13, No Iterations 48
smoothSolver:  Solving for k, Initial residual = 0.0255568, Final residual = 7.41301e-13, No Iterations 50
ExecutionTime = 25.47 s  ClockTime = 25 s

forceCoeffs forceCoeffs write:
    Coefficient	Total	Pressure	Viscous	Internal
    Cd:	0.00190464	0.00184061	6.4027e-05	0
    Cd(f):	0.000813874	0.000784003	2.98702e-05	0
    Cd(r):	0.00109076	0.00105661	3.41568e-05	0
    Cl:	0.00027689	0.000272603	4.28657e-06	0
    Cl(f):	0.000138598	0.000136302	2.29603e-06	0
    Cl(r):	0.000138292	0.000136302	1.99054e-06	0
    CmPitch:	1.52744e-07	1.75452e-15	1.52744e-07	0
    CmRoll:	-0.000138445	-0.000136302	-2.14328e-06	0
    CmYaw:	0.000952318	0.000920305	3.20135e-05	0
    Cs:	-4.9542e-23	-3.9205e-23	-1.0337e-23	0
    Cs(f):	0.000952318	0.000920305	3.20135e-05	0
    Cs(r):	-0.000952318	-0.000920305	-3.20135e-05	0

    writing force and moment coefficient files.

Time = 29

smoothSolver:  Solving for Ux, Initial residual = 0.0135102, Final residual = 7.56239e-13, No Iterations 75
smoothSolver:  Solving for Uy, Initial residual = 0.0225465, Final residual = 9.68176e-13, No Iterations 75
GAMG:  Solving for p, Initial residual = 0.0126905, Final residual = 8.26319e-13, No Iterations 39
time step continuity errors : sum local = 2.52548e-14, global = 7.93235e-16, cumulative = -5.31246e-15
smoothSolver:  Solving for omega, Initial residual = 0.00637377, Final residual = 9.5773e-13, No Iterations 47
smoothSolver:  Solving for k, Initial residual = 0.0251059, Final residual = 7.37995e-13, No Iterations 51
ExecutionTime = 26.16 s  ClockTime = 26 s

forceCoeffs forceCoeffs write:
    Coefficient	Total	Pressure	Viscous	Internal
    Cd:	0.00189061	0.00182677	6.3841e-05	0
    Cd(f):	0.000799652	0.000770031	2.96213e-05	0
    Cd(r):	0.00109096	0.00105674	3.42198e-05	0
    Cl:	0.000291306	0.000286708	4.59848e-06	0
    Cl(f):	0.000145796	0.000143354	2.44258e-06	0
    Cl(r):	0.00014551	0.000143354	2.1559e-06	0
    CmPitch:	1.4334e-07	1.62688e-15	1.4334e-07	0
    CmRoll:	-0.000145653	-0.000143354	-2.29924e-06	0
    CmYaw:	0.000945305	0.000913385	3.19205e-05	0
    Cs:	-4.78113e-23	-3.8024e-23	-9.78726e-24	0
    Cs(f):	0.000945305	0.000913385	3.19205e-05	0
    Cs(r):	-0.000945305	-0.000913385	-3.19205e-05	0

    writing force and moment coefficient files.

Time = 30

smoothSolver:  Solving for Ux, Initial residual = 0.0132444, Final residual = 7.52777e-13, No Iterations 75
smoothSolver:  Solving for Uy, Initial residual = 0.0217388, Final residual = 9.70696e-13, No Iterations 75
GAMG:  Solving for p, Initial residual = 0.0124104, Final residual = 7.92728e-13, No Iterations 39
time step continuity errors : sum local = 2.35269e-14, global = 7.20351e-16, cumulative = -4.59211e-15
smoothSolver:  Solving for omega, Initial residual = 0.00609546, Final residual = 7.03425e-13, No Iterations 47
smoothSolver:  Solving for k, Initial residual = 0.024604, Final residual = 7.03239e-13, No Iterations 50
ExecutionTime = 26.84 s  ClockTime = 27 s

forceCoeffs forceCoeffs write:
    Coefficient	Total	Pressure	Viscous	Internal
    Cd:	0.00187521	0.00181164	6.35654e-05	0
    Cd(f):	0.000785851	0.000756515	2.9336e-05	0
    Cd(r):	0.00108936	0.00105513	3.42294e-05	0
    Cl:	0.000303506	0.000298612	4.89338e-06	0
    Cl(f):	0.000151888	0.000149306	2.58235e-06	0
    Cl(r):	0.000151617	0.000149306	2.31102e-06	0
    CmPitch:	1.35665e-07	1.48097e-15	1.35665e-07	0
    CmRoll:	-0.000151753	-0.000149306	-2.44669e-06	0
    CmYaw:	0.000937603	0.000905821	3.17827e-05	0
    Cs:	-4.61583e-23	-3.69444e-23	-9.21391e-24	0
    Cs(f):	0.000937603	0.000905821	3.17827e-05	0
    Cs(r):	-0.000937603	-0.000905821	-3.17827e-05	0

    writing force and moment coefficient files.

Time = 31

smoothSolver:  Solving for Ux, Initial residual = 0.0129765, Final residual = 7.50069e-13, No Iterations 75
smoothSolver:  Solving for Uy, Initial residual = 0.0210768, Final residual = 9.72447e-13, No Iterations 75
GAMG:  Solving for p, Initial residual = 0.0121542, Final residual = 7.07017e-13, No Iterations 39
time step continuity errors : sum local = 2.03766e-14, global = 6.15451e-16, cumulative = -3.97666e-15
smoothSolver:  Solving for omega, Initial residual = 0.00581653, Final residual = 8.48915e-13, No Iterations 48
smoothSolver:  Solving for k, Initial residual = 0.0239575, Final residual = 8.65156e-13, No Iterations 51
ExecutionTime = 27.57 s  ClockTime = 28 s

forceCoeffs forceCoeffs write:
    Coefficient	Total	Pressure	Viscous	Internal
    Cd:	0.00185945	0.00179619	6.32637e-05	0
    Cd(f):	0.000772899	0.000743855	2.90439e-05	0
    Cd(r):	0.00108655	0.00105233	3.42198e-05	0
    Cl:	0.000313651	0.000308475	5.17583e-06	0
    Cl(f):	0.000156954	0.000154238	2.71597e-06	0
    Cl(r):	0.000156697	0.000154238	2.45987e-06	0
    CmPitch:	1.2805e-07	1.30524e-15	1.2805e-07	0
    CmRoll:	-0.000156825	-0.000154238	-2.58792e-06	0
    CmYaw:	0.000929725	0.000898093	3.16319e-05	0
    Cs:	-4.45972e-23	-3.5971e-23	-8.62613e-24	0
    Cs(f):	0.000929725	0.000898093	3.16319e-05	0
    Cs(r):	-0.000929725	-0.000898093	-3.16319e-05	0

    writing force and moment coefficient files.

Time = 32

smoothSolver:  Solving for Ux, Initial residual = 0.0127091, Final residual = 7.47884e-13, No Iterations 75
smoothSolver:  Solving for Uy, Initial residual = 0.0205065, Final residual = 9.73051e-13, No Iterations 75
GAMG:  Solving for p, Initial residual = 0.011941, Final residual = 8.98281e-13, No Iterations 37
time step continuity errors : sum local = 2.51154e-14, global = 8.72444e-16, cumulative = -3.10422e-15
smoothSolver:  Solving for omega, Initial residual = 0.00557789, Final residual = 7.76929e-13, No Iterations 46
smoothSolver:  Solving for k, Initial residual = 0.0232234, Final residual = 9.78662e-13, No Iterations 51
ExecutionTime = 28.25 s  ClockTime = 28 s

forceCoeffs forceCoeffs write:
    Coefficient	Total	Pressure	Viscous	Internal
    Cd:	0.00184425	0.00178126	6.2985e-05	0
    Cd(f):	0.000761142	0.000732371	2.87719e-05	0
    Cd(r):	0.0010831	0.00104889	3.42131e-05	0
    Cl:	0.00032196	0.000316519	5.44112e-06	0
    Cl(f):	0.0001611	0.00015826	2.84061e-06	0
    Cl(r):	0.00016086	0.00015826	2.6005e-06	0
    CmPitch:	1.20055e-07	1.12925e-15	1.20055e-07	0
    CmRoll:	-0.00016098	-0.00015826	-2.72056e-06	0
    CmYaw:	0.000922123	0.00089063	3.14925e-05	0
    Cs:	-4.32681e-23	-3.50834e-23	-8.18471e-24	0
    Cs(f):	0.000922123	0.00089063	3.14925e-05	0
    Cs(r):	-0.000922123	-0.00089063	-3.14925e-05	0

    writing force and moment coefficient files.

Time = 33

smoothSolver:  Solving for Ux, Initial residual = 0.0124467, Final residual = 7.46128e-13, No Iterations 75
smoothSolver:  Solving for Uy, Initial residual = 0.0199987, Final residual = 9.73136e-13, No Iterations 75
GAMG:  Solving for p, Initial residual = 0.0117261, Final residual = 6.85319e-13, No Iterations 39
time step continuity errors : sum local = 1.86095e-14, global = 5.63568e-16, cumulative = -2.54065e-15
smoothSolver:  Solving for omega, Initial residual = 0.00534828, Final residual = 9.55038e-13, No Iterations 47
smoothSolver:  Solving for k, Initial residual = 0.0225807, Final residual = 8.44501e-13, No Iterations 55
ExecutionTime = 28.95 s  ClockTime = 29 s

forceCoeffs forceCoeffs write:
    Coefficient	Total	Pressure	Viscous	Internal
    Cd:	0.00182989	0.00176711	6.27809e-05	0
    Cd(f):	0.000750434	0.000721892	2.85419e-05	0
    Cd(r):	0.00107946	0.00104522	3.4239e-05	0
    Cl:	0.000329025	0.000323328	5.69711e-06	0
    Cl(f):	0.000164618	0.000161664	2.95372e-06	0
    Cl(r):	0.000164408	0.000161664	2.74339e-06	0
    CmPitch:	1.05164e-07	9.73399e-16	1.05164e-07	0
    CmRoll:	-0.000164513	-0.000161664	-2.84855e-06	0
    CmYaw:	0.000914947	0.000883556	3.13905e-05	0
    Cs:	-4.21205e-23	-3.42495e-23	-7.87098e-24	0
    Cs(f):	0.000914947	0.000883556	3.13905e-05	0
    Cs(r):	-0.000914947	-0.000883556	-3.13905e-05	0

    writing force and moment coefficient files.

Time = 34

smoothSolver:  Solving for Ux, Initial residual = 0.0121816, Final residual = 7.44412e-13, No Iterations 75
smoothSolver:  Solving for Uy, Initial residual = 0.0195428, Final residual = 9.73237e-13, No Iterations 75
GAMG:  Solving for p, Initial residual = 0.0115373, Final residual = 8.11677e-13, No Iterations 39
time step continuity errors : sum local = 2.14021e-14, global = 6.42008e-16, cumulative = -1.89864e-15
smoothSolver:  Solving for omega, Initial residual = 0.00511665, Final residual = 7.55426e-13, No Iterations 49
smoothSolver:  Solving for k, Initial residual = 0.0218511, Final residual = 8.36227e-13, No Iterations 54
ExecutionTime = 29.67 s  ClockTime = 30 s

forceCoeffs forceCoeffs write:
    Coefficient	Total	Pressure	Viscous	Internal
    Cd:	0.00181713	0.00175449	6.26477e-05	0
    Cd(f):	0.000741068	0.000712717	2.83512e-05	0
    Cd(r):	0.00107607	0.00104177	3.42965e-05	0
    Cl:	0.000334997	0.000329052	5.94526e-06	0
    Cl(f):	0.000167587	0.000164526	3.06081e-06	0
    Cl(r):	0.00016741	0.000164526	2.88446e-06	0
    CmPitch:	8.81773e-08	8.68551e-16	8.81773e-08	0
    CmRoll:	-0.000167499	-0.000164526	-2.97263e-06	0
    CmYaw:	0.000908567	0.000877243	3.13239e-05	0
    Cs:	-4.11362e-23	-3.34581e-23	-7.67805e-24	0
    Cs(f):	0.000908567	0.000877243	3.13239e-05	0
    Cs(r):	-0.000908567	-0.000877243	-3.13239e-05	0

    writing force and moment coefficient files.

Time = 35

smoothSolver:  Solving for Ux, Initial residual = 0.0119184, Final residual = 7.42583e-13, No Iterations 75
smoothSolver:  Solving for Uy, Initial residual = 0.0191333, Final residual = 9.74275e-13, No Iterations 75
GAMG:  Solving for p, Initial residual = 0.0113513, Final residual = 8.57296e-13, No Iterations 39
time step continuity errors : sum local = 2.19661e-14, global = 6.56804e-16, cumulative = -1.24184e-15
smoothSolver:  Solving for omega, Initial residual = 0.00492395, Final residual = 7.35363e-13, No Iterations 50
smoothSolver:  Solving for k, Initial residual = 0.021151, Final residual = 9.77302e-13, No Iterations 54
ExecutionTime = 30.36 s  ClockTime = 30 s

forceCoeffs forceCoeffs write:
    Coefficient	Total	Pressure	Viscous	Internal
    Cd:	0.00180616	0.00174357	6.25858e-05	0
    Cd(f):	0.000732853	0.000704652	2.82013e-05	0
    Cd(r):	0.0010733	0.00103892	3.43845e-05	0
    Cl:	0.00034045	0.000334266	6.18326e-06	0
    Cl(f):	0.000170287	0.000167133	3.15379e-06	0
    Cl(r):	0.000170163	0.000167133	3.02947e-06	0
    CmPitch:	6.21624e-08	8.18697e-16	6.21624e-08	0
    CmRoll:	-0.000170225	-0.000167133	-3.09163e-06	0
    CmYaw:	0.000903078	0.000871785	3.12929e-05	0
    Cs:	-4.0289e-23	-3.26877e-23	-7.60128e-24	0
    Cs(f):	0.000903078	0.000871785	3.12929e-05	0
    Cs(r):	-0.000903078	-0.000871785	-3.12929e-05	0

    writing force and moment coefficient files.

Time = 36

smoothSolver:  Solving for Ux, Initial residual = 0.0116616, Final residual = 7.40382e-13, No Iterations 75
smoothSolver:  Solving for Uy, Initial residual = 0.018734, Final residual = 9.75844e-13, No Iterations 75
GAMG:  Solving for p, Initial residual = 0.011136, Final residual = 8.59406e-13, No Iterations 39
time step continuity errors : sum local = 2.14109e-14, global = 6.43447e-16, cumulative = -5.9839e-16
smoothSolver:  Solving for omega, Initial residual = 0.00467367, Final residual = 7.73808e-13, No Iterations 51
smoothSolver:  Solving for k, Initial residual = 0.0204392, Final residual = 7.55383e-13, No Iterations 56
ExecutionTime = 31.03 s  ClockTime = 31 s

forceCoeffs forceCoeffs write:
    Coefficient	Total	Pressure	Viscous	Internal
    Cd:	0.00179712	0.00173452	6.26017e-05	0
    Cd(f):	0.000725918	0.000697815	2.81036e-05	0
    Cd(r):	0.0010712	0.00103671	3.44981e-05	0
    Cl:	0.000345286	0.000338891	6.39454e-06	0
    Cl(f):	0.000172678	0.000169446	3.23237e-06	0
    Cl(r):	0.000172608	0.000169446	3.16217e-06	0
    CmPitch:	3.50975e-08	8.02952e-16	3.50975e-08	0
    CmRoll:	-0.000172643	-0.000169446	-3.19727e-06	0
    CmYaw:	0.000898561	0.00086726	3.13008e-05	0
    Cs:	-3.94085e-23	-3.19454e-23	-7.46308e-24	0
    Cs(f):	0.000898561	0.00086726	3.13008e-05	0
    Cs(r):	-0.000898561	-0.00086726	-3.13008e-05	0

    writing force and moment coefficient files.

Time = 37

smoothSolver:  Solving for Ux, Initial residual = 0.0114186, Final residual = 7.37801e-13, No Iterations 75
smoothSolver:  Solving for Uy, Initial residual = 0.0183468, Final residual = 9.77718e-13, No Iterations 75
GAMG:  Solving for p, Initial residual = 0.0108777, Final residual = 8.35038e-13, No Iterations 39
time step continuity errors : sum local = 2.02429e-14, global = 5.97996e-16, cumulative = -3.93503e-19
smoothSolver:  Solving for omega, Initial residual = 0.00446952, Final residual = 8.80463e-13, No Iterations 51
smoothSolver:  Solving for k, Initial residual = 0.0196995, Final residual = 8.15464e-13, No Iterations 57
ExecutionTime = 31.7 s  ClockTime = 32 s

forceCoeffs forceCoeffs write:
    Coefficient	Total	Pressure	Viscous	Internal
    Cd:	0.00178989	0.00172721	6.26801e-05	0
    Cd(f):	0.000720009	0.000691955	2.80541e-05	0
    Cd(r):	0.00106988	0.00103525	3.4626e-05	0
    Cl:	0.000349871	0.000343299	6.57193e-06	0
    Cl(f):	0.000174957	0.00017165	3.30713e-06	0
    Cl(r):	0.000174914	0.00017165	3.2648e-06	0
    CmPitch:	2.11644e-08	7.99691e-16	2.11644e-08	0
    CmRoll:	-0.000174936	-0.00017165	-3.28596e-06	0
    CmYaw:	0.000894945	0.000863605	3.134e-05	0
    Cs:	-3.85041e-23	-3.1232e-23	-7.27209e-24	0
    Cs(f):	0.000894945	0.000863605	3.134e-05	0
    Cs(r):	-0.000894945	-0.000863605	-3.134e-05	0

    writing force and moment coefficient files.

Time = 38

smoothSolver:  Solving for Ux, Initial residual = 0.0111871, Final residual = 9.98087e-13, No Iterations 74
smoothSolver:  Solving for Uy, Initial residual = 0.0179525, Final residual = 9.7962e-13, No Iterations 75
GAMG:  Solving for p, Initial residual = 0.0105855, Final residual = 7.58954e-13, No Iterations 39
time step continuity errors : sum local = 1.79239e-14, global = 5.21803e-16, cumulative = 5.21409e-16
smoothSolver:  Solving for omega, Initial residual = 0.00428857, Final residual = 8.52883e-13, No Iterations 52
smoothSolver:  Solving for k, Initial residual = 0.0189943, Final residual = 8.45298e-13, No Iterations 58
ExecutionTime = 32.4 s  ClockTime = 32 s

forceCoeffs forceCoeffs write:
    Coefficient	Total	Pressure	Viscous	Internal
    Cd:	0.00178411	0.00172131	6.27968e-05	0
    Cd(f):	0.000715061	0.000687024	2.80364e-05	0
    Cd(r):	0.00106905	0.00103429	3.47604e-05	0
    Cl:	0.000353985	0.000347261	6.72403e-06	0
    Cl(f):	0.000177002	0.000173631	3.37142e-06	0
    Cl(r):	0.000176983	0.000173631	3.35261e-06	0
    CmPitch:	9.40841e-09	7.74074e-16	9.40841e-09	0
    CmRoll:	-0.000176993	-0.000173631	-3.36201e-06	0
    CmYaw:	0.000892053	0.000860655	3.13984e-05	0
    Cs:	-3.75995e-23	-3.05676e-23	-7.03189e-24	0
    Cs(f):	0.000892053	0.000860655	3.13984e-05	0
    Cs(r):	-0.000892053	-0.000860655	-3.13984e-05	0

    writing force and moment coefficient files.

Time = 39

smoothSolver:  Solving for Ux, Initial residual = 0.0109727, Final residual = 9.92984e-13, No Iterations 74
smoothSolver:  Solving for Uy, Initial residual = 0.0175508, Final residual = 9.8144e-13, No Iterations 75
GAMG:  Solving for p, Initial residual = 0.0102888, Final residual = 6.88705e-13, No Iterations 39
time step continuity errors : sum local = 1.58579e-14, global = 4.49447e-16, cumulative = 9.70856e-16
smoothSolver:  Solving for omega, Initial residual = 0.0041339, Final residual = 7.47929e-13, No Iterations 53
smoothSolver:  Solving for k, Initial residual = 0.0183039, Final residual = 8.63277e-13, No Iterations 59
ExecutionTime = 33.08 s  ClockTime = 33 s

forceCoeffs forceCoeffs write:
    Coefficient	Total	Pressure	Viscous	Internal
    Cd:	0.00177988	0.00171692	6.29537e-05	0
    Cd(f):	0.000711293	0.00068325	2.80431e-05	0
    Cd(r):	0.00106858	0.00103367	3.49107e-05	0
    Cl:	0.00035729	0.000350423	6.86759e-06	0
    Cl(f):	0.00017864	0.000175211	3.42896e-06	0
    Cl(r):	0.00017865	0.000175211	3.43863e-06	0
    CmPitch:	-4.83673e-09	7.33022e-16	-4.83673e-09	0
    CmRoll:	-0.000178645	-0.000175211	-3.43379e-06	0
    CmYaw:	0.000889938	0.000858462	3.14769e-05	0
    Cs:	-3.6681e-23	-2.99599e-23	-6.7211e-24	0
    Cs(f):	0.000889938	0.000858462	3.14769e-05	0
    Cs(r):	-0.000889938	-0.000858462	-3.14769e-05	0

    writing force and moment coefficient files.

Time = 40

smoothSolver:  Solving for Ux, Initial residual = 0.0107725, Final residual = 9.87241e-13, No Iterations 74
smoothSolver:  Solving for Uy, Initial residual = 0.0171515, Final residual = 9.82843e-13, No Iterations 75
GAMG:  Solving for p, Initial residual = 0.0100185, Final residual = 8.94538e-13, No Iterations 38
time step continuity errors : sum local = 2.00971e-14, global = 5.32152e-16, cumulative = 1.50301e-15
smoothSolver:  Solving for omega, Initial residual = 0.00399043, Final residual = 8.51288e-13, No Iterations 53
smoothSolver:  Solving for k, Initial residual = 0.0175759, Final residual = 7.76678e-13, No Iterations 60
ExecutionTime = 33.75 s  ClockTime = 34 s

forceCoeffs forceCoeffs write:
    Coefficient	Total	Pressure	Viscous	Internal
    Cd:	0.00177676	0.00171363	6.31242e-05	0
    Cd(f):	0.00070848	0.000680419	2.80605e-05	0
    Cd(r):	0.00106828	0.00103321	3.50637e-05	0
    Cl:	0.000359798	0.000352794	7.00326e-06	0
    Cl(f):	0.000179878	0.000176397	3.48075e-06	0
    Cl(r):	0.00017992	0.000176397	3.52251e-06	0
    CmPitch:	-2.08783e-08	6.63699e-16	-2.08783e-08	0
    CmRoll:	-0.000179899	-0.000176397	-3.50163e-06	0
    CmYaw:	0.000888379	0.000856816	3.15621e-05	0
    Cs:	-3.57651e-23	-2.93979e-23	-6.36722e-24	0
    Cs(f):	0.000888379	0.000856816	3.15621e-05	0
    Cs(r):	-0.000888379	-0.000856816	-3.15621e-05	0

    writing force and moment coefficient files.

Time = 41

smoothSolver:  Solving for Ux, Initial residual = 0.0105896, Final residual = 9.81124e-13, No Iterations 74
smoothSolver:  Solving for Uy, Initial residual = 0.016761, Final residual = 9.84347e-13, No Iterations 75
GAMG:  Solving for p, Initial residual = 0.00977583, Final residual = 8.08403e-13, No Iterations 37
time step continuity errors : sum local = 1.77365e-14, global = 4.01633e-16, cumulative = 1.90464e-15
smoothSolver:  Solving for omega, Initial residual = 0.00388976, Final residual = 9.50499e-13, No Iterations 53
smoothSolver:  Solving for k, Initial residual = 0.0170219, Final residual = 9.72624e-13, No Iterations 60
ExecutionTime = 34.41 s  ClockTime = 34 s

forceCoeffs forceCoeffs write:
    Coefficient	Total	Pressure	Viscous	Internal
    Cd:	0.00177416	0.00171086	6.33028e-05	0
    Cd(f):	0.00070636	0.000678277	2.80833e-05	0
    Cd(r):	0.0010678	0.00103258	3.52195e-05	0
    Cl:	0.000361441	0.000354305	7.13617e-06	0
    Cl(f):	0.000180681	0.000177152	3.52886e-06	0
    Cl(r):	0.00018076	0.000177152	3.60731e-06	0
    CmPitch:	-3.92263e-08	5.89999e-16	-3.92263e-08	0
    CmRoll:	-0.00018072	-0.000177152	-3.56809e-06	0
    CmYaw:	0.000887081	0.000855429	3.16514e-05	0
    Cs:	-3.4879e-23	-2.88678e-23	-6.01119e-24	0
    Cs(f):	0.000887081	0.000855429	3.16514e-05	0
    Cs(r):	-0.000887081	-0.000855429	-3.16514e-05	0

    writing force and moment coefficient files.

Time = 42

smoothSolver:  Solving for Ux, Initial residual = 0.0104221, Final residual = 9.74508e-13, No Iterations 74
smoothSolver:  Solving for Uy, Initial residual = 0.0163716, Final residual = 9.85534e-13, No Iterations 75
GAMG:  Solving for p, Initial residual = 0.00956187, Final residual = 7.36368e-13, No Iterations 39
time step continuity errors : sum local = 1.5795e-14, global = 4.3127e-16, cumulative = 2.33591e-15
smoothSolver:  Solving for omega, Initial residual = 0.00377841, Final residual = 7.40463e-13, No Iterations 54
smoothSolver:  Solving for k, Initial residual = 0.0163252, Final residual = 8.15894e-13, No Iterations 61
ExecutionTime = 35.1 s  ClockTime = 35 s

forceCoeffs forceCoeffs write:
    Coefficient	Total	Pressure	Viscous	Internal
    Cd:	0.0017714	0.00170794	6.34604e-05	0
    Cd(f):	0.00070455	0.000676448	2.81023e-05	0
    Cd(r):	0.00106685	0.00103149	3.53581e-05	0
    Cl:	0.000362299	0.000355043	7.25577e-06	0
    Cl(f):	0.000181091	0.000177521	3.56916e-06	0
    Cl(r):	0.000181208	0.000177521	3.68661e-06	0
    CmPitch:	-5.87242e-08	5.11939e-16	-5.87242e-08	0
    CmRoll:	-0.000181149	-0.000177521	-3.62789e-06	0
    CmYaw:	0.000885699	0.000853969	3.17302e-05	0
    Cs:	-3.40297e-23	-2.83619e-23	-5.66778e-24	0
    Cs(f):	0.000885699	0.000853969	3.17302e-05	0
    Cs(r):	-0.000885699	-0.000853969	-3.17302e-05	0

    writing force and moment coefficient files.

Time = 43

smoothSolver:  Solving for Ux, Initial residual = 0.0102668, Final residual = 9.67672e-13, No Iterations 74
smoothSolver:  Solving for Uy, Initial residual = 0.0159964, Final residual = 9.8573e-13, No Iterations 75
GAMG:  Solving for p, Initial residual = 0.00936851, Final residual = 9.19898e-13, No Iterations 39
time step continuity errors : sum local = 1.9287e-14, global = 5.26294e-16, cumulative = 2.8622e-15
smoothSolver:  Solving for omega, Initial residual = 0.00368348, Final residual = 8.18272e-13, No Iterations 54
smoothSolver:  Solving for k, Initial residual = 0.0157375, Final residual = 9.88489e-13, No Iterations 61
ExecutionTime = 35.78 s  ClockTime = 36 s

forceCoeffs forceCoeffs write:
    Coefficient	Total	Pressure	Viscous	Internal
    Cd:	0.00176815	0.00170455	6.36026e-05	0
    Cd(f):	0.000702891	0.000674771	2.81196e-05	0
    Cd(r):	0.00106526	0.00102978	3.5483e-05	0
    Cl:	0.000362373	0.000355009	7.3634e-06	0
    Cl(f):	0.000181107	0.000177505	3.60263e-06	0
    Cl(r):	0.000181265	0.000177505	3.76077e-06	0
    CmPitch:	-7.90683e-08	4.59018e-16	-7.90683e-08	0
    CmRoll:	-0.000181186	-0.000177505	-3.6817e-06	0
    CmYaw:	0.000884077	0.000852276	3.18013e-05	0
    Cs:	-3.32116e-23	-2.7871e-23	-5.34067e-24	0
    Cs(f):	0.000884077	0.000852276	3.18013e-05	0
    Cs(r):	-0.000884077	-0.000852276	-3.18013e-05	0

    writing force and moment coefficient files.

Time = 44

smoothSolver:  Solving for Ux, Initial residual = 0.0101237, Final residual = 9.60792e-13, No Iterations 74
smoothSolver:  Solving for Uy, Initial residual = 0.015629, Final residual = 9.85195e-13, No Iterations 75
GAMG:  Solving for p, Initial residual = 0.00917051, Final residual = 6.44423e-13, No Iterations 40
time step continuity errors : sum local = 1.3229e-14, global = 3.79289e-16, cumulative = 3.24149e-15
smoothSolver:  Solving for omega, Initial residual = 0.00358335, Final residual = 9.34329e-13, No Iterations 54
smoothSolver:  Solving for k, Initial residual = 0.0150922, Final residual = 7.83425e-13, No Iterations 62
ExecutionTime = 36.46 s  ClockTime = 36 s

forceCoeffs forceCoeffs write:
    Coefficient	Total	Pressure	Viscous	Internal
    Cd:	0.00176415	0.00170045	6.37031e-05	0
    Cd(f):	0.00070116	0.000673033	2.81273e-05	0
    Cd(r):	0.00106299	0.00102741	3.55758e-05	0
    Cl:	0.000361829	0.000354381	7.44847e-06	0
    Cl(f):	0.000180818	0.00017719	3.6272e-06	0
    Cl(r):	0.000181012	0.00017719	3.82127e-06	0
    CmPitch:	-9.70353e-08	4.19524e-16	-9.70353e-08	0
    CmRoll:	-0.000180915	-0.00017719	-3.72423e-06	0
    CmYaw:	0.000882075	0.000850223	3.18516e-05	0
    Cs:	-3.24291e-23	-2.73964e-23	-5.03266e-24	0
    Cs(f):	0.000882075	0.000850223	3.18516e-05	0
    Cs(r):	-0.000882075	-0.000850223	-3.18516e-05	0

    writing force and moment coefficient files.

Time = 45

smoothSolver:  Solving for Ux, Initial residual = 0.00999145, Final residual = 9.54042e-13, No Iterations 74
smoothSolver:  Solving for Uy, Initial residual = 0.0152806, Final residual = 9.84183e-13, No Iterations 75
GAMG:  Solving for p, Initial residual = 0.00897185, Final residual = 6.84147e-13, No Iterations 40
time step continuity errors : sum local = 1.37527e-14, global = 3.90749e-16, cumulative = 3.63224e-15
smoothSolver:  Solving for omega, Initial residual = 0.00350349, Final residual = 7.48183e-13, No Iterations 55
smoothSolver:  Solving for k, Initial residual = 0.0145145, Final residual = 9.02713e-13, No Iterations 62
ExecutionTime = 37.2 s  ClockTime = 37 s

forceCoeffs forceCoeffs write:
    Coefficient	Total	Pressure	Viscous	Internal
    Cd:	0.00175963	0.00169585	6.3782e-05	0
    Cd(f):	0.000699452	0.000671319	2.81333e-05	0
    Cd(r):	0.00106018	0.00102453	3.56488e-05	0
    Cl:	0.00036073	0.000353215	7.51549e-06	0
    Cl(f):	0.000180254	0.000176607	3.64642e-06	0
    Cl(r):	0.000180476	0.000176607	3.86906e-06	0
    CmPitch:	-1.1132e-07	4.08438e-16	-1.1132e-07	0
    CmRoll:	-0.000180365	-0.000176607	-3.75774e-06	0
    CmYaw:	0.000879817	0.000847926	3.1891e-05	0
    Cs:	-3.16632e-23	-2.69344e-23	-4.72876e-24	0
    Cs(f):	0.000879817	0.000847926	3.1891e-05	0
    Cs(r):	-0.000879817	-0.000847926	-3.1891e-05	0

    writing force and moment coefficient files.

Time = 46

smoothSolver:  Solving for Ux, Initial residual = 0.00986899, Final residual = 9.47345e-13, No Iterations 74
smoothSolver:  Solving for Uy, Initial residual = 0.0149491, Final residual = 9.82226e-13, No Iterations 75
GAMG:  Solving for p, Initial residual = 0.00875301, Final residual = 6.57607e-13, No Iterations 40
time step continuity errors : sum local = 1.2951e-14, global = 3.68716e-16, cumulative = 4.00096e-15
smoothSolver:  Solving for omega, Initial residual = 0.0033968, Final residual = 7.90488e-13, No Iterations 55
smoothSolver:  Solving for k, Initial residual = 0.0139416, Final residual = 9.65774e-13, No Iterations 62
ExecutionTime = 37.89 s  ClockTime = 38 s

forceCoeffs forceCoeffs write:
    Coefficient	Total	Pressure	Viscous	Internal
    Cd:	0.00175489	0.00169105	6.38305e-05	0
    Cd(f):	0.000697824	0.000669688	2.81361e-05	0
    Cd(r):	0.00105706	0.00102137	3.56944e-05	0
    Cl:	0.000359236	0.000351678	7.55834e-06	0
    Cl(f):	0.000179497	0.000175839	3.65807e-06	0
    Cl(r):	0.000179739	0.000175839	3.90027e-06	0
    CmPitch:	-1.21096e-07	4.05602e-16	-1.21096e-07	0
    CmRoll:	-0.000179618	-0.000175839	-3.77917e-06	0
    CmYaw:	0.000877443	0.000845527	3.19153e-05	0
    Cs:	-3.09095e-23	-2.64883e-23	-4.4212e-24	0
    Cs(f):	0.000877443	0.000845527	3.19153e-05	0
    Cs(r):	-0.000877443	-0.000845527	-3.19153e-05	0

    writing force and moment coefficient files.

Time = 47

smoothSolver:  Solving for Ux, Initial residual = 0.00975545, Final residual = 9.41027e-13, No Iterations 74
smoothSolver:  Solving for Uy, Initial residual = 0.0146407, Final residual = 9.80152e-13, No Iterations 75
GAMG:  Solving for p, Initial residual = 0.00855341, Final residual = 9.1712e-13, No Iterations 39
time step continuity errors : sum local = 1.7696e-14, global = 4.76037e-16, cumulative = 4.477e-15
smoothSolver:  Solving for omega, Initial residual = 0.00331713, Final residual = 8.67883e-13, No Iterations 55
smoothSolver:  Solving for k, Initial residual = 0.0133901, Final residual = 7.52062e-13, No Iterations 63
ExecutionTime = 38.58 s  ClockTime = 39 s

forceCoeffs forceCoeffs write:
    Coefficient	Total	Pressure	Viscous	Internal
    Cd:	0.00175045	0.00168657	6.38824e-05	0
    Cd(f):	0.000696568	0.000668419	2.81491e-05	0
    Cd(r):	0.00105389	0.00101815	3.57333e-05	0
    Cl:	0.000357319	0.000349735	7.58414e-06	0
    Cl(f):	0.000178531	0.000174868	3.66377e-06	0
    Cl(r):	0.000178788	0.000174868	3.92037e-06	0
    CmPitch:	-1.28303e-07	4.19842e-16	-1.28303e-07	0
    CmRoll:	-0.00017866	-0.000174868	-3.79207e-06	0
    CmYaw:	0.000875227	0.000843286	3.19412e-05	0
    Cs:	-3.01428e-23	-2.60578e-23	-4.08496e-24	0
    Cs(f):	0.000875227	0.000843286	3.19412e-05	0
    Cs(r):	-0.000875227	-0.000843286	-3.19412e-05	0

    writing force and moment coefficient files.

Time = 48

smoothSolver:  Solving for Ux, Initial residual = 0.00964936, Final residual = 9.352e-13, No Iterations 74
smoothSolver:  Solving for Uy, Initial residual = 0.0143578, Final residual = 9.78059e-13, No Iterations 75
GAMG:  Solving for p, Initial residual = 0.00836571, Final residual = 9.0162e-13, No Iterations 38
time step continuity errors : sum local = 1.70567e-14, global = 4.88105e-16, cumulative = 4.9651e-15
smoothSolver:  Solving for omega, Initial residual = 0.00323015, Final residual = 9.54576e-13, No Iterations 55
smoothSolver:  Solving for k, Initial residual = 0.0128225, Final residual = 8.15111e-13, No Iterations 63
ExecutionTime = 39.28 s  ClockTime = 39 s

forceCoeffs forceCoeffs write:
    Coefficient	Total	Pressure	Viscous	Internal
    Cd:	0.00174663	0.0016827	6.39345e-05	0
    Cd(f):	0.000695768	0.000667596	2.8172e-05	0
    Cd(r):	0.00105087	0.0010151	3.57626e-05	0
    Cl:	0.000355097	0.000347506	7.59058e-06	0
    Cl(f):	0.000177414	0.000173753	3.66117e-06	0
    Cl(r):	0.000177683	0.000173753	3.92941e-06	0
    CmPitch:	-1.34118e-07	4.34454e-16	-1.34118e-07	0
    CmRoll:	-0.000177549	-0.000173753	-3.79529e-06	0
    CmYaw:	0.000873317	0.000841349	3.19673e-05	0
    Cs:	-2.9381e-23	-2.56486e-23	-3.73235e-24	0
    Cs(f):	0.000873317	0.000841349	3.19673e-05	0
    Cs(r):	-0.000873317	-0.000841349	-3.19673e-05	0

    writing force and moment coefficient files.

Time = 49

smoothSolver:  Solving for Ux, Initial residual = 0.00954865, Final residual = 9.29578e-13, No Iterations 74
smoothSolver:  Solving for Uy, Initial residual = 0.0140927, Final residual = 9.7544e-13, No Iterations 75
GAMG:  Solving for p, Initial residual = 0.00820645, Final residual = 6.46283e-13, No Iterations 39
time step continuity errors : sum local = 1.19921e-14, global = 3.10671e-16, cumulative = 5.27577e-15
smoothSolver:  Solving for omega, Initial residual = 0.00313973, Final residual = 7.43059e-13, No Iterations 56
smoothSolver:  Solving for k, Initial residual = 0.012329, Final residual = 8.50934e-13, No Iterations 63
ExecutionTime = 39.98 s  ClockTime = 40 s

forceCoeffs forceCoeffs write:
    Coefficient	Total	Pressure	Viscous	Internal
    Cd:	0.00174366	0.00167965	6.40143e-05	0
    Cd(f):	0.000695564	0.00066735	2.82146e-05	0
    Cd(r):	0.0010481	0.0010123	3.57997e-05	0
    Cl:	0.000352534	0.000344949	7.5851e-06	0
    Cl(f):	0.000176127	0.000172474	3.65281e-06	0
    Cl(r):	0.000176407	0.000172474	3.9323e-06	0
    CmPitch:	-1.39746e-07	4.55202e-16	-1.39746e-07	0
    CmRoll:	-0.000176267	-0.000172474	-3.79255e-06	0
    CmYaw:	0.000871831	0.000839824	3.20071e-05	0
    Cs:	-2.8581e-23	-2.5258e-23	-3.32302e-24	0
    Cs(f):	0.000871831	0.000839824	3.20071e-05	0
    Cs(r):	-0.000871831	-0.000839824	-3.20071e-05	0

    writing force and moment coefficient files.

Time = 50

smoothSolver:  Solving for Ux, Initial residual = 0.00945374, Final residual = 9.23978e-13, No Iterations 74
smoothSolver:  Solving for Uy, Initial residual = 0.0138458, Final residual = 9.72156e-13, No Iterations 75
GAMG:  Solving for p, Initial residual = 0.00805945, Final residual = 6.67875e-13, No Iterations 39
time step continuity errors : sum local = 1.21554e-14, global = 3.20175e-16, cumulative = 5.59595e-15
smoothSolver:  Solving for omega, Initial residual = 0.00306952, Final residual = 8.16532e-13, No Iterations 56
smoothSolver:  Solving for k, Initial residual = 0.0118466, Final residual = 8.96072e-13, No Iterations 63
ExecutionTime = 40.66 s  ClockTime = 41 s

forceCoeffs forceCoeffs write:
    Coefficient	Total	Pressure	Viscous	Internal
    Cd:	0.00174136	0.00167727	6.40927e-05	0
    Cd(f):	0.000695824	0.000667561	2.82626e-05	0
    Cd(r):	0.00104554	0.00100971	3.58301e-05	0
    Cl:	0.000349712	0.000342144	7.56744e-06	0
    Cl(f):	0.000174711	0.000171072	3.63852e-06	0
    Cl(r):	0.000175001	0.000171072	3.92892e-06	0
    CmPitch:	-1.45204e-07	4.70681e-16	-1.45204e-07	0
    CmRoll:	-0.000174856	-0.000171072	-3.78372e-06	0
    CmYaw:	0.00087068	0.000838633	3.20464e-05	0
    Cs:	-2.78082e-23	-2.48868e-23	-2.9214e-24	0
    Cs(f):	0.00087068	0.000838633	3.20464e-05	0
    Cs(r):	-0.00087068	-0.000838633	-3.20464e-05	0

    writing force and moment coefficient files.

Time = 51

smoothSolver:  Solving for Ux, Initial residual = 0.00936331, Final residual = 9.18411e-13, No Iterations 74
smoothSolver:  Solving for Uy, Initial residual = 0.0136131, Final residual = 9.68492e-13, No Iterations 75
GAMG:  Solving for p, Initial residual = 0.00791794, Final residual = 8.10027e-13, No Iterations 37
time step continuity errors : sum local = 1.44554e-14, global = 1.20678e-16, cumulative = 5.71663e-15
smoothSolver:  Solving for omega, Initial residual = 0.00298436, Final residual = 8.56457e-13, No Iterations 56
smoothSolver:  Solving for k, Initial residual = 0.0113907, Final residual = 9.52229e-13, No Iterations 63
ExecutionTime = 41.35 s  ClockTime = 41 s

forceCoeffs forceCoeffs write:
    Coefficient	Total	Pressure	Viscous	Internal
    Cd:	0.00173957	0.00167538	6.41885e-05	0
    Cd(f):	0.000696474	0.000668151	2.8323e-05	0
    Cd(r):	0.0010431	0.00100723	3.58654e-05	0
    Cl:	0.000346624	0.000339081	7.54236e-06	0
    Cl(f):	0.000173161	0.000169541	3.62046e-06	0
    Cl(r):	0.000173463	0.000169541	3.9219e-06	0
    CmPitch:	-1.50717e-07	4.85682e-16	-1.50717e-07	0
    CmRoll:	-0.000173312	-0.000169541	-3.77118e-06	0
    CmYaw:	0.000869786	0.000837692	3.20942e-05	0
    Cs:	-2.70539e-23	-2.45296e-23	-2.52428e-24	0
    Cs(f):	0.000869786	0.000837692	3.20942e-05	0
    Cs(r):	-0.000869786	-0.000837692	-3.20942e-05	0

    writing force and moment coefficient files.

Time = 52

smoothSolver:  Solving for Ux, Initial residual = 0.00927706, Final residual = 9.129e-13, No Iterations 74
smoothSolver:  Solving for Uy, Initial residual = 0.0133897, Final residual = 9.64769e-13, No Iterations 75
GAMG:  Solving for p, Initial residual = 0.00777473, Final residual = 7.03575e-13, No Iterations 39
time step continuity errors : sum local = 1.23111e-14, global = 3.27592e-16, cumulative = 6.04422e-15
smoothSolver:  Solving for omega, Initial residual = 0.00291026, Final residual = 9.09499e-13, No Iterations 56
smoothSolver:  Solving for k, Initial residual = 0.0109322, Final residual = 9.7546e-13, No Iterations 63
ExecutionTime = 42.04 s  ClockTime = 42 s

forceCoeffs forceCoeffs write:
    Coefficient	Total	Pressure	Viscous	Internal
    Cd:	0.00173795	0.00167367	6.42766e-05	0
    Cd(f):	0.000697286	0.000668903	2.83828e-05	0
    Cd(r):	0.00104066	0.00100477	3.58938e-05	0
    Cl:	0.000343375	0.000335864	7.51098e-06	0
    Cl(f):	0.000171531	0.000167932	3.59882e-06	0
    Cl(r):	0.000171844	0.000167932	3.91216e-06	0
    CmPitch:	-1.56669e-07	4.93091e-16	-1.56669e-07	0
    CmRoll:	-0.000171688	-0.000167932	-3.75549e-06	0
    CmYaw:	0.000868973	0.000836835	3.21383e-05	0
    Cs:	-2.63255e-23	-2.41833e-23	-2.14227e-24	0
    Cs(f):	0.000868973	0.000836835	3.21383e-05	0
    Cs(r):	-0.000868973	-0.000836835	-3.21383e-05	0

    writing force and moment coefficient files.

Time = 53

smoothSolver:  Solving for Ux, Initial residual = 0.00919428, Final residual = 9.07556e-13, No Iterations 74
smoothSolver:  Solving for Uy, Initial residual = 0.0131795, Final residual = 9.61603e-13, No Iterations 75
GAMG:  Solving for p, Initial residual = 0.0076494, Final residual = 8.45488e-13, No Iterations 39
time step continuity errors : sum local = 1.45006e-14, global = 4.09646e-16, cumulative = 6.45386e-15
smoothSolver:  Solving for omega, Initial residual = 0.00282731, Final residual = 9.47463e-13, No Iterations 56
smoothSolver:  Solving for k, Initial residual = 0.0105232, Final residual = 7.42246e-13, No Iterations 64
ExecutionTime = 42.73 s  ClockTime = 43 s

forceCoeffs forceCoeffs write:
    Coefficient	Total	Pressure	Viscous	Internal
    Cd:	0.00173626	0.00167189	6.43645e-05	0
    Cd(f):	0.000698209	0.000669764	2.84442e-05	0
    Cd(r):	0.00103805	0.00100213	3.59202e-05	0
    Cl:	0.000339839	0.000332363	7.476e-06	0
    Cl(f):	0.000169756	0.000166181	3.575e-06	0
    Cl(r):	0.000170082	0.000166181	3.90101e-06	0
    CmPitch:	-1.63006e-07	4.99771e-16	-1.63006e-07	0
    CmRoll:	-0.000169919	-0.000166181	-3.738e-06	0
    CmYaw:	0.000868128	0.000835946	3.21822e-05	0
    Cs:	-2.56235e-23	-2.38474e-23	-1.77602e-24	0
    Cs(f):	0.000868128	0.000835946	3.21822e-05	0
    Cs(r):	-0.000868128	-0.000835946	-3.21822e-05	0

    writing force and moment coefficient files.

Time = 54

smoothSolver:  Solving for Ux, Initial residual = 0.00911448, Final residual = 9.02233e-13, No Iterations 74
smoothSolver:  Solving for Uy, Initial residual = 0.0129819, Final residual = 9.58696e-13, No Iterations 75
GAMG:  Solving for p, Initial residual = 0.00753598, Final residual = 9.0818e-13, No Iterations 39
time step continuity errors : sum local = 1.52718e-14, global = 4.3338e-16, cumulative = 6.88724e-15
smoothSolver:  Solving for omega, Initial residual = 0.00276624, Final residual = 9.83581e-13, No Iterations 56
smoothSolver:  Solving for k, Initial residual = 0.010104, Final residual = 7.58445e-13, No Iterations 64
ExecutionTime = 43.44 s  ClockTime = 43 s

forceCoeffs forceCoeffs write:
    Coefficient	Total	Pressure	Viscous	Internal
    Cd:	0.00173423	0.0016698	6.44352e-05	0
    Cd(f):	0.000699059	0.00067056	2.84992e-05	0
    Cd(r):	0.00103517	0.000999235	3.5936e-05	0
    Cl:	0.000336112	0.000328675	7.43673e-06	0
    Cl(f):	0.000167886	0.000164337	3.54858e-06	0
    Cl(r):	0.000168226	0.000164337	3.88816e-06	0
    CmPitch:	-1.69791e-07	5.03969e-16	-1.69791e-07	0
    CmRoll:	-0.000168056	-0.000164337	-3.71837e-06	0
    CmYaw:	0.000867115	0.000834898	3.22176e-05	0
    Cs:	-2.49413e-23	-2.3518e-23	-1.42322e-24	0
    Cs(f):	0.000867115	0.000834898	3.22176e-05	0
    Cs(r):	-0.000867115	-0.000834898	-3.22176e-05	0

    writing force and moment coefficient files.

Time = 55

smoothSolver:  Solving for Ux, Initial residual = 0.00903796, Final residual = 8.97071e-13, No Iterations 74
smoothSolver:  Solving for Uy, Initial residual = 0.0127938, Final residual = 9.56155e-13, No Iterations 75
GAMG:  Solving for p, Initial residual = 0.00743696, Final residual = 9.26392e-13, No Iterations 39
time step continuity errors : sum local = 1.52694e-14, global = 4.36018e-16, cumulative = 7.32326e-15
smoothSolver:  Solving for omega, Initial residual = 0.00269289, Final residual = 7.39742e-13, No Iterations 57
smoothSolver:  Solving for k, Initial residual = 0.00974745, Final residual = 7.65076e-13, No Iterations 64
ExecutionTime = 44.13 s  ClockTime = 44 s

forceCoeffs forceCoeffs write:
    Coefficient	Total	Pressure	Viscous	Internal
    Cd:	0.0017318	0.0016673	6.44944e-05	0
    Cd(f):	0.000699827	0.000671277	2.85504e-05	0
    Cd(r):	0.00103197	0.000996028	3.59441e-05	0
    Cl:	0.000332145	0.000324751	7.39366e-06	0
    Cl(f):	0.000165896	0.000162376	3.52064e-06	0
    Cl(r):	0.000166249	0.000162376	3.87303e-06	0
    CmPitch:	-1.76197e-07	5.12655e-16	-1.76197e-07	0
    CmRoll:	-0.000166072	-0.000162376	-3.69683e-06	0
    CmYaw:	0.0008659	0.000833652	3.22472e-05	0
    Cs:	-2.42775e-23	-2.31941e-23	-1.0834e-24	0
    Cs(f):	0.0008659	0.000833652	3.22472e-05	0
    Cs(r):	-0.0008659	-0.000833652	-3.22472e-05	0

    writing force and moment coefficient files.

Time = 56

smoothSolver:  Solving for Ux, Initial residual = 0.00896406, Final residual = 8.92092e-13, No Iterations 74
[...]
    CmRoll:	-0.000787755	-0.000772471	-1.52839e-05	0
    CmYaw:	0.00104899	0.00101191	3.70756e-05	0
    Cs:	2.2142e-23	2.7744e-23	-5.60196e-24	0
    Cs(f):	0.00104899	0.00101191	3.70756e-05	0
    Cs(r):	-0.00104899	-0.00101191	-3.70756e-05	0

    writing force and moment coefficient files.

Time = 1987

smoothSolver:  Solving for Ux, Initial residual = 0.00437634, Final residual = 8.26471e-13, No Iterations 73
smoothSolver:  Solving for Uy, Initial residual = 0.0210981, Final residual = 8.46909e-13, No Iterations 80
GAMG:  Solving for p, Initial residual = 0.0118664, Final residual = 7.56888e-13, No Iterations 41
time step continuity errors : sum local = 5.8681e-15, global = 2.59074e-16, cumulative = 1.72292e-13
smoothSolver:  Solving for omega, Initial residual = 0.00144331, Final residual = 8.73027e-13, No Iterations 60
smoothSolver:  Solving for k, Initial residual = 0.00276201, Final residual = 9.79709e-13, No Iterations 67
ExecutionTime = 1415.47 s  ClockTime = 1416 s

forceCoeffs forceCoeffs write:
    Coefficient	Total	Pressure	Viscous	Internal
    Cd:	0.00211875	0.00204418	7.45738e-05	0
    Cd(f):	0.000258797	0.00023738	2.14168e-05	0
    Cd(r):	0.00185996	0.0018068	5.3157e-05	0
    Cl:	0.00160116	0.00156942	3.17402e-05	0
    Cl(f):	0.00079836	0.00078471	1.36499e-05	0
    Cl(r):	0.0008028	0.00078471	1.80903e-05	0
    CmPitch:	-2.22022e-06	6.24702e-15	-2.22022e-06	0
    CmRoll:	-0.00080058	-0.00078471	-1.58701e-05	0
    CmYaw:	0.00105938	0.00102209	3.72869e-05	0
    Cs:	2.29078e-23	2.81265e-23	-5.21872e-24	0
    Cs(f):	0.00105938	0.00102209	3.72869e-05	0
    Cs(r):	-0.00105938	-0.00102209	-3.72869e-05	0

    writing force and moment coefficient files.

Time = 1988

smoothSolver:  Solving for Ux, Initial residual = 0.00435883, Final residual = 8.31635e-13, No Iterations 73
smoothSolver:  Solving for Uy, Initial residual = 0.0210559, Final residual = 8.47161e-13, No Iterations 80
GAMG:  Solving for p, Initial residual = 0.0116778, Final residual = 8.42829e-13, No Iterations 41
time step continuity errors : sum local = 6.54503e-15, global = 2.8969e-16, cumulative = 1.72581e-13
smoothSolver:  Solving for omega, Initial residual = 0.0014038, Final residual = 8.73102e-13, No Iterations 60
smoothSolver:  Solving for k, Initial residual = 0.00274012, Final residual = 9.80143e-13, No Iterations 67
ExecutionTime = 1416.15 s  ClockTime = 1416 s

forceCoeffs forceCoeffs write:
    Coefficient	Total	Pressure	Viscous	Internal
    Cd:	0.00213795	0.00206297	7.49826e-05	0
    Cd(f):	0.000257886	0.0002368	2.10856e-05	0
    Cd(r):	0.00188007	0.00182617	5.38969e-05	0
    Cl:	0.00162218	0.00158937	3.28113e-05	0
    Cl(f):	0.000808791	0.000794684	1.41073e-05	0
    Cl(r):	0.000813388	0.000794684	1.87039e-05	0
    CmPitch:	-2.2983e-06	6.04134e-15	-2.2983e-06	0
    CmRoll:	-0.00081109	-0.000794684	-1.64056e-05	0
    CmYaw:	0.00106898	0.00103148	3.74913e-05	0
    Cs:	2.41482e-23	2.83625e-23	-4.21429e-24	0
    Cs(f):	0.00106898	0.00103148	3.74913e-05	0
    Cs(r):	-0.00106898	-0.00103148	-3.74913e-05	0

    writing force and moment coefficient files.

Time = 1989

smoothSolver:  Solving for Ux, Initial residual = 0.00434352, Final residual = 8.36906e-13, No Iterations 73
smoothSolver:  Solving for Uy, Initial residual = 0.0210215, Final residual = 8.47607e-13, No Iterations 80
GAMG:  Solving for p, Initial residual = 0.0114881, Final residual = 9.26533e-13, No Iterations 41
time step continuity errors : sum local = 7.21251e-15, global = 3.1473e-16, cumulative = 1.72896e-13
smoothSolver:  Solving for omega, Initial residual = 0.00136139, Final residual = 8.77649e-13, No Iterations 60
smoothSolver:  Solving for k, Initial residual = 0.00271592, Final residual = 9.83371e-13, No Iterations 67
ExecutionTime = 1416.84 s  ClockTime = 1417 s

forceCoeffs forceCoeffs write:
    Coefficient	Total	Pressure	Viscous	Internal
    Cd:	0.0021557	0.00208033	7.53683e-05	0
    Cd(f):	0.00025851	0.000237718	2.07928e-05	0
    Cd(r):	0.00189719	0.00184262	5.45756e-05	0
    Cl:	0.00163868	0.0016049	3.37828e-05	0
    Cl(f):	0.000816973	0.000802449	1.4524e-05	0
    Cl(r):	0.000821708	0.000802449	1.92588e-05	0
    CmPitch:	-2.36739e-06	5.76946e-15	-2.36739e-06	0
    CmRoll:	-0.000819341	-0.000802449	-1.68914e-05	0
    CmYaw:	0.00107785	0.00104017	3.76842e-05	0
    Cs:	2.51724e-23	2.84529e-23	-3.28052e-24	0
    Cs(f):	0.00107785	0.00104017	3.76842e-05	0
    Cs(r):	-0.00107785	-0.00104017	-3.76842e-05	0

    writing force and moment coefficient files.

Time = 1990

smoothSolver:  Solving for Ux, Initial residual = 0.00432849, Final residual = 8.42248e-13, No Iterations 73
smoothSolver:  Solving for Uy, Initial residual = 0.0209907, Final residual = 8.4853e-13, No Iterations 80
GAMG:  Solving for p, Initial residual = 0.0113215, Final residual = 6.06976e-13, No Iterations 42
time step continuity errors : sum local = 4.74208e-15, global = 2.29317e-16, cumulative = 1.73125e-13
smoothSolver:  Solving for omega, Initial residual = 0.00131197, Final residual = 8.81754e-13, No Iterations 60
smoothSolver:  Solving for k, Initial residual = 0.0026891, Final residual = 9.87477e-13, No Iterations 67
ExecutionTime = 1417.54 s  ClockTime = 1418 s

forceCoeffs forceCoeffs write:
    Coefficient	Total	Pressure	Viscous	Internal
    Cd:	0.00217184	0.00209611	7.57305e-05	0
    Cd(f):	0.000260564	0.000240024	2.05395e-05	0
    Cd(r):	0.00191128	0.00185609	5.5191e-05	0
    Cl:	0.00165072	0.00161606	3.46514e-05	0
    Cl(f):	0.000822931	0.000808032	1.48981e-05	0
    Cl(r):	0.000827786	0.000808032	1.97534e-05	0
    CmPitch:	-2.42765e-06	5.42161e-15	-2.42765e-06	0
    CmRoll:	-0.000825358	-0.000808032	-1.73257e-05	0
    CmYaw:	0.00108592	0.00104806	3.78653e-05	0
    Cs:	2.60836e-23	2.84063e-23	-2.32272e-24	0
    Cs(f):	0.00108592	0.00104806	3.78653e-05	0
    Cs(r):	-0.00108592	-0.00104806	-3.78653e-05	0

    writing force and moment coefficient files.

Time = 1991

smoothSolver:  Solving for Ux, Initial residual = 0.00431541, Final residual = 8.47325e-13, No Iterations 73
smoothSolver:  Solving for Uy, Initial residual = 0.0209648, Final residual = 8.50267e-13, No Iterations 80
GAMG:  Solving for p, Initial residual = 0.0112196, Final residual = 6.43943e-13, No Iterations 42
time step continuity errors : sum local = 5.04384e-15, global = 2.429e-16, cumulative = 1.73368e-13
smoothSolver:  Solving for omega, Initial residual = 0.00127238, Final residual = 8.80256e-13, No Iterations 60
smoothSolver:  Solving for k, Initial residual = 0.00266347, Final residual = 9.91201e-13, No Iterations 67
ExecutionTime = 1418.23 s  ClockTime = 1419 s

forceCoeffs forceCoeffs write:
    Coefficient	Total	Pressure	Viscous	Internal
    Cd:	0.00218618	0.0021101	7.60757e-05	0
    Cd(f):	0.00026392	0.000243584	2.03359e-05	0
    Cd(r):	0.00192226	0.00186652	5.57398e-05	0
    Cl:	0.00165834	0.00162293	3.54039e-05	0
    Cl(f):	0.000826698	0.000811467	1.5231e-05	0
    Cl(r):	0.00083164	0.000811467	2.01728e-05	0
    CmPitch:	-2.47089e-06	4.98331e-15	-2.47089e-06	0
    CmRoll:	-0.000829169	-0.000811467	-1.77019e-05	0
    CmYaw:	0.00109309	0.00105505	3.80379e-05	0
    Cs:	2.59638e-23	2.82316e-23	-2.26778e-24	0
    Cs(f):	0.00109309	0.00105505	3.80379e-05	0
    Cs(r):	-0.00109309	-0.00105505	-3.80379e-05	0

    writing force and moment coefficient files.

Time = 1992

smoothSolver:  Solving for Ux, Initial residual = 0.0043037, Final residual = 8.51879e-13, No Iterations 73
smoothSolver:  Solving for Uy, Initial residual = 0.0209392, Final residual = 8.52292e-13, No Iterations 80
GAMG:  Solving for p, Initial residual = 0.0111429, Final residual = 6.72123e-13, No Iterations 42
time step continuity errors : sum local = 5.28333e-15, global = 2.55852e-16, cumulative = 1.73624e-13
smoothSolver:  Solving for omega, Initial residual = 0.00124801, Final residual = 8.79236e-13, No Iterations 60
smoothSolver:  Solving for k, Initial residual = 0.00263828, Final residual = 9.93869e-13, No Iterations 67
ExecutionTime = 1418.92 s  ClockTime = 1419 s

forceCoeffs forceCoeffs write:
    Coefficient	Total	Pressure	Viscous	Internal
    Cd:	0.0021986	0.00212221	7.63913e-05	0
    Cd(f):	0.000268564	0.000248388	2.01764e-05	0
    Cd(r):	0.00193003	0.00187382	5.62149e-05	0
    Cl:	0.00166147	0.00162543	3.60386e-05	0
    Cl(f):	0.000828239	0.000812716	1.5523e-05	0
    Cl(r):	0.000833232	0.000812716	2.05156e-05	0
    CmPitch:	-2.49628e-06	4.45336e-15	-2.49628e-06	0
    CmRoll:	-0.000830735	-0.000812716	-1.80193e-05	0
    CmYaw:	0.0010993	0.0010611	3.81956e-05	0
    Cs:	2.50969e-23	2.79361e-23	-2.83918e-24	0
    Cs(f):	0.0010993	0.0010611	3.81956e-05	0
    Cs(r):	-0.0010993	-0.0010611	-3.81956e-05	0

    writing force and moment coefficient files.

Time = 1993

smoothSolver:  Solving for Ux, Initial residual = 0.00429215, Final residual = 8.56266e-13, No Iterations 73
smoothSolver:  Solving for Uy, Initial residual = 0.0209175, Final residual = 8.54353e-13, No Iterations 80
GAMG:  Solving for p, Initial residual = 0.0111278, Final residual = 6.84518e-13, No Iterations 42
time step continuity errors : sum local = 5.39816e-15, global = 2.56172e-16, cumulative = 1.7388e-13
smoothSolver:  Solving for omega, Initial residual = 0.00122056, Final residual = 8.89131e-13, No Iterations 60
smoothSolver:  Solving for k, Initial residual = 0.00261432, Final residual = 9.96428e-13, No Iterations 67
ExecutionTime = 1419.61 s  ClockTime = 1420 s

forceCoeffs forceCoeffs write:
    Coefficient	Total	Pressure	Viscous	Internal
    Cd:	0.00220882	0.00213216	7.66581e-05	0
    Cd(f):	0.000274293	0.000254245	2.00479e-05	0
    Cd(r):	0.00193453	0.00187792	5.66101e-05	0
    Cl:	0.00166023	0.00162367	3.65622e-05	0
    Cl(f):	0.00082761	0.000811836	1.57744e-05	0
    Cl(r):	0.000832624	0.000811836	2.07878e-05	0
    CmPitch:	-2.50674e-06	3.83671e-15	-2.50674e-06	0
    CmRoll:	-0.000830117	-0.000811836	-1.82811e-05	0
    CmYaw:	0.00110441	0.00106608	3.8329e-05	0
    Cs:	2.43595e-23	2.75309e-23	-3.17138e-24	0
    Cs(f):	0.00110441	0.00106608	3.8329e-05	0
    Cs(r):	-0.00110441	-0.00106608	-3.8329e-05	0

    writing force and moment coefficient files.

Time = 1994

smoothSolver:  Solving for Ux, Initial residual = 0.00427937, Final residual = 8.59938e-13, No Iterations 73
smoothSolver:  Solving for Uy, Initial residual = 0.0208981, Final residual = 8.56318e-13, No Iterations 80
GAMG:  Solving for p, Initial residual = 0.0111421, Final residual = 6.60271e-13, No Iterations 42
time step continuity errors : sum local = 5.22531e-15, global = 2.49586e-16, cumulative = 1.7413e-13
smoothSolver:  Solving for omega, Initial residual = 0.00121512, Final residual = 8.91793e-13, No Iterations 60
smoothSolver:  Solving for k, Initial residual = 0.00259556, Final residual = 7.37062e-13, No Iterations 68
ExecutionTime = 1420.31 s  ClockTime = 1421 s

forceCoeffs forceCoeffs write:
    Coefficient	Total	Pressure	Viscous	Internal
    Cd:	0.00221674	0.00213986	7.68821e-05	0
    Cd(f):	0.000281125	0.000261168	1.99576e-05	0
    Cd(r):	0.00193561	0.00187869	5.69245e-05	0
    Cl:	0.00165449	0.00161752	3.6967e-05	0
    Cl(f):	0.000824747	0.000808761	1.59861e-05	0
    Cl(r):	0.000829742	0.000808761	2.09808e-05	0
    CmPitch:	-2.49735e-06	3.1429e-15	-2.49735e-06	0
    CmRoll:	-0.000827245	-0.000808761	-1.84835e-05	0
    CmYaw:	0.00110837	0.00106993	3.8441e-05	0
    Cs:	2.35662e-23	2.70156e-23	-3.4494e-24	0
    Cs(f):	0.00110837	0.00106993	3.8441e-05	0
    Cs(r):	-0.00110837	-0.00106993	-3.8441e-05	0

    writing force and moment coefficient files.

Time = 1995

smoothSolver:  Solving for Ux, Initial residual = 0.00426472, Final residual = 8.62811e-13, No Iterations 73
smoothSolver:  Solving for Uy, Initial residual = 0.0208759, Final residual = 8.58066e-13, No Iterations 80
GAMG:  Solving for p, Initial residual = 0.0111733, Final residual = 6.29905e-13, No Iterations 42
time step continuity errors : sum local = 4.99995e-15, global = 2.37999e-16, cumulative = 1.74368e-13
smoothSolver:  Solving for omega, Initial residual = 0.00120861, Final residual = 8.95395e-13, No Iterations 60
smoothSolver:  Solving for k, Initial residual = 0.00257501, Final residual = 9.99701e-13, No Iterations 67
ExecutionTime = 1421.02 s  ClockTime = 1421 s

forceCoeffs forceCoeffs write:
    Coefficient	Total	Pressure	Viscous	Internal
    Cd:	0.00222238	0.00214531	7.70711e-05	0
    Cd(f):	0.000289087	0.000269175	1.99121e-05	0
    Cd(r):	0.0019333	0.00187614	5.7159e-05	0
    Cl:	0.00164421	0.00160696	3.72469e-05	0
    Cl(f):	0.00081964	0.000803481	1.61588e-05	0
    Cl(r):	0.000824569	0.000803481	2.10881e-05	0
    CmPitch:	-2.46467e-06	2.38477e-15	-2.46467e-06	0
    CmRoll:	-0.000822104	-0.000803481	-1.86235e-05	0
    CmYaw:	0.00111119	0.00107266	3.85356e-05	0
    Cs:	2.2685e-23	2.63931e-23	-3.70813e-24	0
    Cs(f):	0.00111119	0.00107266	3.85356e-05	0
    Cs(r):	-0.00111119	-0.00107266	-3.85356e-05	0

    writing force and moment coefficient files.

Time = 1996

smoothSolver:  Solving for Ux, Initial residual = 0.00424851, Final residual = 8.64829e-13, No Iterations 73
smoothSolver:  Solving for Uy, Initial residual = 0.0208527, Final residual = 8.5965e-13, No Iterations 80
GAMG:  Solving for p, Initial residual = 0.0112473, Final residual = 9.98073e-13, No Iterations 41
time step continuity errors : sum local = 7.94483e-15, global = 3.40585e-16, cumulative = 1.74709e-13
smoothSolver:  Solving for omega, Initial residual = 0.00122094, Final residual = 8.94106e-13, No Iterations 60
smoothSolver:  Solving for k, Initial residual = 0.00255874, Final residual = 7.37854e-13, No Iterations 68
ExecutionTime = 1421.71 s  ClockTime = 1422 s

forceCoeffs forceCoeffs write:
    Coefficient	Total	Pressure	Viscous	Internal
    Cd:	0.00222567	0.00214845	7.7222e-05	0
    Cd(f):	0.000298207	0.000278307	1.98997e-05	0
    Cd(r):	0.00192747	0.00187015	5.73223e-05	0
    Cl:	0.00162926	0.00159184	3.74225e-05	0
    Cl(f):	0.000812208	0.000795919	1.62888e-05	0
    Cl(r):	0.000817053	0.000795919	2.11337e-05	0
    CmPitch:	-2.42243e-06	1.5711e-15	-2.42243e-06	0
    CmRoll:	-0.000814631	-0.000795919	-1.87113e-05	0
    CmYaw:	0.00111284	0.00107423	3.8611e-05	0
    Cs:	2.18483e-23	2.56591e-23	-3.8108e-24	0
    Cs(f):	0.00111284	0.00107423	3.8611e-05	0
    Cs(r):	-0.00111284	-0.00107423	-3.8611e-05	0

    writing force and moment coefficient files.

Time = 1997

smoothSolver:  Solving for Ux, Initial residual = 0.00423165, Final residual = 8.66062e-13, No Iterations 73
smoothSolver:  Solving for Uy, Initial residual = 0.0208301, Final residual = 8.60925e-13, No Iterations 80
GAMG:  Solving for p, Initial residual = 0.0113267, Final residual = 9.00749e-13, No Iterations 41
time step continuity errors : sum local = 7.19208e-15, global = 3.08533e-16, cumulative = 1.75017e-13
smoothSolver:  Solving for omega, Initial residual = 0.00121998, Final residual = 8.98081e-13, No Iterations 60
smoothSolver:  Solving for k, Initial residual = 0.00254048, Final residual = 7.38094e-13, No Iterations 68
ExecutionTime = 1422.42 s  ClockTime = 1423 s

forceCoeffs forceCoeffs write:
    Coefficient	Total	Pressure	Viscous	Internal
    Cd:	0.00222669	0.00214936	7.73328e-05	0
    Cd(f):	0.000308306	0.000288387	1.99192e-05	0
    Cd(r):	0.00191839	0.00186097	5.74136e-05	0
    Cl:	0.00161008	0.00157259	3.74944e-05	0
    Cl(f):	0.000802669	0.000786293	1.63759e-05	0
    Cl(r):	0.000807411	0.000786293	2.11185e-05	0
    CmPitch:	-2.37128e-06	7.19092e-16	-2.37128e-06	0
    CmRoll:	-0.00080504	-0.000786293	-1.87472e-05	0
    CmYaw:	0.00111335	0.00107468	3.86664e-05	0
    Cs:	2.10641e-23	2.48338e-23	-3.76968e-24	0
    Cs(f):	0.00111335	0.00107468	3.86664e-05	0
    Cs(r):	-0.00111335	-0.00107468	-3.86664e-05	0

    writing force and moment coefficient files.

Time = 1998

smoothSolver:  Solving for Ux, Initial residual = 0.0042143, Final residual = 8.66912e-13, No Iterations 73
smoothSolver:  Solving for Uy, Initial residual = 0.0208065, Final residual = 8.61855e-13, No Iterations 80
GAMG:  Solving for p, Initial residual = 0.0114322, Final residual = 7.7843e-13, No Iterations 41
time step continuity errors : sum local = 6.23551e-15, global = 2.67379e-16, cumulative = 1.75284e-13
smoothSolver:  Solving for omega, Initial residual = 0.00124712, Final residual = 8.98593e-13, No Iterations 60
smoothSolver:  Solving for k, Initial residual = 0.00252506, Final residual = 7.35995e-13, No Iterations 68
ExecutionTime = 1423.11 s  ClockTime = 1423 s

forceCoeffs forceCoeffs write:
    Coefficient	Total	Pressure	Viscous	Internal
    Cd:	0.0022255	0.00214809	7.74121e-05	0
    Cd(f):	0.000319433	0.000299454	1.99788e-05	0
    Cd(r):	0.00190607	0.00184863	5.74333e-05	0
    Cl:	0.00158663	0.00154918	3.74544e-05	0
    Cl(f):	0.000791008	0.000774589	1.6419e-05	0
    Cl(r):	0.000795625	0.000774589	2.10354e-05	0
    CmPitch:	-2.30822e-06	-1.49285e-16	-2.30822e-06	0
    CmRoll:	-0.000793317	-0.000774589	-1.87272e-05	0
    CmYaw:	0.00111275	0.00107404	3.87061e-05	0
    Cs:	2.0317e-23	2.39173e-23	-3.60027e-24	0
    Cs(f):	0.00111275	0.00107404	3.87061e-05	0
    Cs(r):	-0.00111275	-0.00107404	-3.87061e-05	0

    writing force and moment coefficient files.

Time = 1999

smoothSolver:  Solving for Ux, Initial residual = 0.00419512, Final residual = 8.67246e-13, No Iterations 73
smoothSolver:  Solving for Uy, Initial residual = 0.0207866, Final residual = 8.62718e-13, No Iterations 80
GAMG:  Solving for p, Initial residual = 0.0115393, Final residual = 8.60055e-13, No Iterations 40
time step continuity errors : sum local = 6.90718e-15, global = 3.22752e-16, cumulative = 1.75607e-13
smoothSolver:  Solving for omega, Initial residual = 0.00126613, Final residual = 9.02971e-13, No Iterations 60
smoothSolver:  Solving for k, Initial residual = 0.00250864, Final residual = 9.98419e-13, No Iterations 67
ExecutionTime = 1423.8 s  ClockTime = 1424 s

forceCoeffs forceCoeffs write:
    Coefficient	Total	Pressure	Viscous	Internal
    Cd:	0.00222222	0.00214476	7.74571e-05	0
    Cd(f):	0.00033148	0.000311405	2.00751e-05	0
    Cd(r):	0.00189074	0.00183335	5.7382e-05	0
    Cl:	0.00155926	0.00152195	3.73069e-05	0
    Cl(f):	0.000777394	0.000760975	1.64196e-05	0
    Cl(r):	0.000781862	0.000760975	2.08873e-05	0
    CmPitch:	-2.23388e-06	-1.00429e-15	-2.23388e-06	0
    CmRoll:	-0.000779628	-0.000760975	-1.86534e-05	0
    CmYaw:	0.00111111	0.00107238	3.87286e-05	0
    Cs:	1.97454e-23	2.29266e-23	-3.18125e-24	0
    Cs(f):	0.00111111	0.00107238	3.87286e-05	0
    Cs(r):	-0.00111111	-0.00107238	-3.87286e-05	0

    writing force and moment coefficient files.

Time = 2000

smoothSolver:  Solving for Ux, Initial residual = 0.00417427, Final residual = 8.66931e-13, No Iterations 73
smoothSolver:  Solving for Uy, Initial residual = 0.0207669, Final residual = 8.6344e-13, No Iterations 80
GAMG:  Solving for p, Initial residual = 0.0116104, Final residual = 7.11422e-13, No Iterations 40
time step continuity errors : sum local = 5.72796e-15, global = 2.41066e-16, cumulative = 1.75848e-13
smoothSolver:  Solving for omega, Initial residual = 0.00130462, Final residual = 9.06233e-13, No Iterations 60
smoothSolver:  Solving for k, Initial residual = 0.00249406, Final residual = 7.36993e-13, No Iterations 68
ExecutionTime = 1424.72 s  ClockTime = 1425 s

forceCoeffs forceCoeffs write:
    Coefficient	Total	Pressure	Viscous	Internal
    Cd:	0.00221681	0.00213934	7.74668e-05	0
    Cd(f):	0.000344376	0.000324181	2.01949e-05	0
    Cd(r):	0.00187243	0.00181516	5.72719e-05	0
    Cl:	0.00152805	0.00149098	3.7077e-05	0
    Cl(f):	0.000761862	0.000745488	1.63745e-05	0
    Cl(r):	0.00076619	0.000745488	2.07025e-05	0
    CmPitch:	-2.16402e-06	-1.82232e-15	-2.16402e-06	0
    CmRoll:	-0.000764026	-0.000745488	-1.85385e-05	0
    CmYaw:	0.0011084	0.00106967	3.87334e-05	0
    Cs:	1.91947e-23	2.18625e-23	-2.66777e-24	0
    Cs(f):	0.0011084	0.00106967	3.87334e-05	0
    Cs(r):	-0.0011084	-0.00106967	-3.87334e-05	0

    writing force and moment coefficient files.

streamLine streamlines write:
    seeded 0 particles
    Tracks:0
    Total samples:0
End

