/*---------------------------------------------------------------------------*\
| =========                 |                                                 |
| \\      /  F ield         | OpenFOAM: The Open Source CFD Toolbox           |
|  \\    /   O peration     | Version:  2312                                  |
|   \\  /    A nd           | Website:  www.openfoam.com                      |
|    \\/     M anipulation  |                                                 |
\*---------------------------------------------------------------------------*/
Build  : _c39a0f64-20231220 OPENFOAM=2312 version=2312
Arch   : "LSB;label=32;scalar=64"
Exec   : simpleFoam
Date   : Jun 13 2024
Time   : 13:49:52
Host   : Manas
PID    : 68500
I/O    : uncollated
Case   : /home/manascfd/Masters_Projects_Main/RANS/R1/CF_Ke_1
nProcs : 1
trapFpe: Floating point exception trapping enabled (FOAM_SIGFPE).
fileModificationChecking : Monitoring run-time modified files using timeStampMaster (fileModificationSkew 5, maxFileModificationPolls 20)
allowSystemOperations : Allowing user-supplied system call operations

// * * * * * * * * * * * * * * * * * * * * * * * * * * * * * * * * * * * * * //
Create time

Create mesh for time = 0


SIMPLE: convergence criteria
    field p	 tolerance 1e-12
    field U	 tolerance 1e-12
    field "(k|epsilon|omega|f|v2)"	 tolerance 1e-12

Reading field p

Reading field U

Reading/calculating face flux field phi

Selecting incompressible transport model Newtonian
Selecting turbulence model type RAS
Selecting RAS turbulence model kEpsilon
RAS
{
    RASModel        kEpsilon;
    turbulence      on;
    printCoeffs     on;
    Cmu             0.09;
    C1              1.44;
    C2              1.92;
    C3              0;
    sigmak          1;
    sigmaEps        1.3;
}

No MRF models present

No finite volume options present

Starting time loop

forceCoeffs forceCoeffs:
    rho: rhoInf
    Freestream density (rhoInf) set to 1
    Not including porosity effects
    magUInf: 1
    lRef   : 1
    Aref   : 1
    rhoInf : 1
    Selecting all coefficients
    - Drag force: Cd
    - Drag force front: Cd(f)
    - Drag force rear: Cd(r)
    - Lift force: Cl
    - Lift force front: Cl(f)
    - Lift force rear: Cl(r)
    - Pitch moment: CmPitch
    - Roll moment: CmRoll
    - Yaw moment: CmYaw
    - Side force: Cs
    - Side force front: Cs(f)
    - Side force rear: Cs(r)


Sampled set:
    sampleLine_U -> raw

streamLine streamlines:
    Employing velocity field U
    automatic track length specified through number of sub cycles : 5

Time = 0.1

smoothSolver:  Solving for Ux, Initial residual = 1, Final residual = 4.54566e-13, No Iterations 28
smoothSolver:  Solving for Uy, Initial residual = 1, Final residual = 6.5476e-13, No Iterations 29
GAMG:  Solving for p, Initial residual = 1, Final residual = 8.87683e-13, No Iterations 63
time step continuity errors : sum local = 1.75418e-15, global = 5.53513e-17, cumulative = 5.53513e-17
smoothSolver:  Solving for epsilon, Initial residual = 0.302272, Final residual = 9.35363e-13, No Iterations 25
bounding epsilon, min: -0.00156809 max: 0.0259415 average: 0.000361766
smoothSolver:  Solving for k, Initial residual = 1, Final residual = 9.91891e-13, No Iterations 26
bounding k, min: -0.00506629 max: 0.138911 average: 0.00399262
ExecutionTime = 1.38 s  ClockTime = 2 s

forceCoeffs forceCoeffs write:
    Coefficient	Total	Pressure	Viscous	Internal
    Cd:	78.1381	77.9475	0.190652	0
    Cd(f):	38.9401	38.8452	0.0948932	0
    Cd(r):	39.1981	39.1023	0.0957589	0
    Cl:	0.257986	0.257121	0.000865703	0
    Cl(f):	0.129341	0.12856	0.000780213	0
    Cl(r):	0.128646	0.12856	8.54898e-05	0
    CmPitch:	0.000347362	4.57498e-12	0.000347362	0
    CmRoll:	-0.128993	-0.12856	-0.000432852	0
    CmYaw:	39.0691	38.9737	0.095326	0
    Cs:	1.48155e-20	-3.26375e-19	3.41191e-19	0
    Cs(f):	39.0691	38.9737	0.095326	0
    Cs(r):	-39.0691	-38.9737	-0.095326	0

    writing force and moment coefficient files.

Time = 0.2

smoothSolver:  Solving for Ux, Initial residual = 0.386932, Final residual = 8.01023e-13, No Iterations 28
smoothSolver:  Solving for Uy, Initial residual = 0.370626, Final residual = 6.89075e-13, No Iterations 27
GAMG:  Solving for p, Initial residual = 0.186413, Final residual = 8.63783e-13, No Iterations 55
time step continuity errors : sum local = 2.93731e-14, global = -1.40507e-15, cumulative = -1.34972e-15
smoothSolver:  Solving for epsilon, Initial residual = 0.385321, Final residual = 6.07887e-13, No Iterations 29
bounding epsilon, min: -0.00648283 max: 0.801975 average: 0.00080957
smoothSolver:  Solving for k, Initial residual = 0.47625, Final residual = 5.70632e-13, No Iterations 30
bounding k, min: -0.0228018 max: 0.445377 average: 0.00470126
ExecutionTime = 1.91 s  ClockTime = 2 s

forceCoeffs forceCoeffs write:
    Coefficient	Total	Pressure	Viscous	Internal
    Cd:	2.60454	2.49124	0.113296	0
    Cd(f):	1.36243	1.30594	0.0564827	0
    Cd(r):	1.24211	1.1853	0.0568137	0
    Cl:	-0.120315	-0.120646	0.000331079	0
    Cl(f):	-0.0598623	-0.0603232	0.00046087	0
    Cl(r):	-0.060453	-0.0603232	-0.000129791	0
    CmPitch:	0.00029533	9.28323e-12	0.00029533	0
    CmRoll:	0.0601576	0.0603232	-0.000165539	0
    CmYaw:	1.30227	1.24562	0.0566482	0
    Cs:	-3.56399e-19	-5.46879e-20	-3.01711e-19	0
    Cs(f):	1.30227	1.24562	0.0566482	0
    Cs(r):	-1.30227	-1.24562	-0.0566482	0

    writing force and moment coefficient files.

Time = 0.3

smoothSolver:  Solving for Ux, Initial residual = 0.120431, Final residual = 7.58619e-13, No Iterations 24
smoothSolver:  Solving for Uy, Initial residual = 0.0887006, Final residual = 8.61405e-13, No Iterations 23
GAMG:  Solving for p, Initial residual = 0.160162, Final residual = 8.42361e-13, No Iterations 47
time step continuity errors : sum local = 2.75977e-14, global = -9.3844e-16, cumulative = -2.28816e-15
smoothSolver:  Solving for epsilon, Initial residual = 0.243609, Final residual = 4.10821e-13, No Iterations 26
bounding epsilon, min: -0.00121987 max: 1.029 average: 0.00143622
smoothSolver:  Solving for k, Initial residual = 0.266386, Final residual = 5.24543e-13, No Iterations 26
bounding k, min: -0.00243556 max: 0.484309 average: 0.00549892
ExecutionTime = 2.37 s  ClockTime = 3 s

forceCoeffs forceCoeffs write:
    Coefficient	Total	Pressure	Viscous	Internal
    Cd:	1.1522	1.04994	0.102264	0
    Cd(f):	0.591317	0.540562	0.0507551	0
    Cd(r):	0.560888	0.509379	0.0515089	0
    Cl:	-0.0304292	-0.031183	0.000753765	0
    Cl(f):	-0.0152631	-0.0155915	0.000328421	0
    Cl(r):	-0.0151661	-0.0155915	0.000425344	0
    CmPitch:	-4.84615e-05	6.57763e-12	-4.84615e-05	0
    CmRoll:	0.0152146	0.0155915	-0.000376883	0
    CmYaw:	0.576102	0.52497	0.051132	0
    Cs:	-5.10679e-20	-4.12552e-20	-9.81265e-21	0
    Cs(f):	0.576102	0.52497	0.051132	0
    Cs(r):	-0.576102	-0.52497	-0.051132	0

    writing force and moment coefficient files.

Time = 0.4

smoothSolver:  Solving for Ux, Initial residual = 0.0863676, Final residual = 6.0538e-13, No Iterations 24
smoothSolver:  Solving for Uy, Initial residual = 0.0513626, Final residual = 9.09821e-13, No Iterations 23
GAMG:  Solving for p, Initial residual = 0.075714, Final residual = 9.06025e-13, No Iterations 43
time step continuity errors : sum local = 3.32075e-14, global = 1.22835e-15, cumulative = -1.05981e-15
smoothSolver:  Solving for epsilon, Initial residual = 0.14127, Final residual = 8.74861e-13, No Iterations 25
bounding epsilon, min: -0.00319112 max: 1.67305 average: 0.00200742
smoothSolver:  Solving for k, Initial residual = 0.147511, Final residual = 5.83381e-13, No Iterations 26
bounding k, min: -0.00291804 max: 0.59872 average: 0.006121
ExecutionTime = 2.81 s  ClockTime = 3 s

forceCoeffs forceCoeffs write:
    Coefficient	Total	Pressure	Viscous	Internal
    Cd:	0.80641	0.699709	0.106701	0
    Cd(f):	0.423504	0.370545	0.0529596	0
    Cd(r):	0.382905	0.329164	0.0537412	0
    Cl:	-0.040599	-0.0413806	0.000781619	0
    Cl(f):	-0.0203892	-0.0206903	0.000301129	0
    Cl(r):	-0.0202098	-0.0206903	0.00048049	0
    CmPitch:	-8.96802e-05	3.42078e-12	-8.96802e-05	0
    CmRoll:	0.0202995	0.0206903	-0.000390809	0
    CmYaw:	0.403205	0.349855	0.0533504	0
    Cs:	-4.83935e-20	-3.76264e-20	-1.07671e-20	0
    Cs(f):	0.403205	0.349855	0.0533504	0
    Cs(r):	-0.403205	-0.349855	-0.0533504	0

    writing force and moment coefficient files.

Time = 0.5

smoothSolver:  Solving for Ux, Initial residual = 0.059704, Final residual = 5.04865e-13, No Iterations 24
smoothSolver:  Solving for Uy, Initial residual = 0.037688, Final residual = 5.74197e-13, No Iterations 23
GAMG:  Solving for p, Initial residual = 0.0593216, Final residual = 7.37814e-13, No Iterations 43
time step continuity errors : sum local = 2.42857e-14, global = 1.01008e-15, cumulative = -4.97259e-17
smoothSolver:  Solving for epsilon, Initial residual = 0.0871517, Final residual = 4.86916e-13, No Iterations 25
bounding epsilon, min: -0.00147004 max: 1.56156 average: 0.00234894
smoothSolver:  Solving for k, Initial residual = 0.0929749, Final residual = 9.09645e-13, No Iterations 25
ExecutionTime = 3.26 s  ClockTime = 4 s

forceCoeffs forceCoeffs write:
    Coefficient	Total	Pressure	Viscous	Internal
    Cd:	0.943868	0.833711	0.110157	0
    Cd(f):	0.492058	0.437352	0.0547065	0
    Cd(r):	0.45181	0.396359	0.0554501	0
    Cl:	-0.0402487	-0.0409924	0.000743622	0
    Cl(f):	-0.0202183	-0.0204962	0.000277904	0
    Cl(r):	-0.0200305	-0.0204962	0.000465718	0
    CmPitch:	-9.3907e-05	2.23464e-12	-9.3907e-05	0
    CmRoll:	0.0201244	0.0204962	-0.000371811	0
    CmYaw:	0.471934	0.416856	0.0550783	0
    Cs:	-3.87742e-20	-3.17074e-20	-7.06681e-21	0
    Cs(f):	0.471934	0.416856	0.0550783	0
    Cs(r):	-0.471934	-0.416856	-0.0550783	0

    writing force and moment coefficient files.

Time = 0.6

smoothSolver:  Solving for Ux, Initial residual = 0.0435891, Final residual = 4.13717e-13, No Iterations 24
smoothSolver:  Solving for Uy, Initial residual = 0.0287766, Final residual = 5.7996e-13, No Iterations 23
GAMG:  Solving for p, Initial residual = 0.0521522, Final residual = 8.24676e-13, No Iterations 41
time step continuity errors : sum local = 2.37136e-14, global = 1.0158e-15, cumulative = 9.66075e-16
smoothSolver:  Solving for epsilon, Initial residual = 0.0620934, Final residual = 7.5051e-13, No Iterations 24
bounding epsilon, min: -0.00160745 max: 1.59677 average: 0.00264327
smoothSolver:  Solving for k, Initial residual = 0.0629628, Final residual = 5.5407e-13, No Iterations 25
bounding k, min: -0.000740037 max: 0.714481 average: 0.00700967
ExecutionTime = 3.75 s  ClockTime = 4 s

forceCoeffs forceCoeffs write:
    Coefficient	Total	Pressure	Viscous	Internal
    Cd:	0.900237	0.789722	0.110515	0
    Cd(f):	0.469934	0.415019	0.0549154	0
    Cd(r):	0.430302	0.374703	0.0555996	0
    Cl:	-0.0396319	-0.0403161	0.000684193	0
    Cl(f):	-0.0199196	-0.0201581	0.00023841	0
    Cl(r):	-0.0197123	-0.0201581	0.000445783	0
    CmPitch:	-0.000103686	1.2406e-12	-0.000103686	0
    CmRoll:	0.019816	0.0201581	-0.000342096	0
    CmYaw:	0.450118	0.394861	0.0552575	0
    Cs:	-3.59858e-20	-2.68609e-20	-9.12489e-21	0
    Cs(f):	0.450118	0.394861	0.0552575	0
    Cs(r):	-0.450118	-0.394861	-0.0552575	0

    writing force and moment coefficient files.

Time = 0.7

smoothSolver:  Solving for Ux, Initial residual = 0.0340236, Final residual = 9.93772e-13, No Iterations 23
smoothSolver:  Solving for Uy, Initial residual = 0.023425, Final residual = 5.27842e-13, No Iterations 23
GAMG:  Solving for p, Initial residual = 0.0475637, Final residual = 8.13461e-13, No Iterations 41
time step continuity errors : sum local = 2.09991e-14, global = 9.35272e-16, cumulative = 1.90135e-15
smoothSolver:  Solving for epsilon, Initial residual = 0.0480538, Final residual = 4.74087e-13, No Iterations 24
bounding epsilon, min: -0.000511608 max: 1.62283 average: 0.00291714
smoothSolver:  Solving for k, Initial residual = 0.048529, Final residual = 8.7161e-13, No Iterations 24
bounding k, min: -0.000465873 max: 0.7354 average: 0.00735001
ExecutionTime = 4.28 s  ClockTime = 5 s

forceCoeffs forceCoeffs write:
    Coefficient	Total	Pressure	Viscous	Internal
    Cd:	0.870366	0.761329	0.109038	0
    Cd(f):	0.454884	0.400666	0.0542172	0
    Cd(r):	0.415483	0.360662	0.0548206	0
    Cl:	-0.0394007	-0.0400041	0.000603414	0
    Cl(f):	-0.0198034	-0.020002	0.000198693	0
    Cl(r):	-0.0195973	-0.020002	0.00040472	0
    CmPitch:	-0.000103013	4.85824e-13	-0.000103013	0
    CmRoll:	0.0197003	0.020002	-0.000301707	0
    CmYaw:	0.435183	0.380664	0.0545189	0
    Cs:	-3.30584e-20	-2.36109e-20	-9.44744e-21	0
    Cs(f):	0.435183	0.380664	0.0545189	0
    Cs(r):	-0.435183	-0.380664	-0.0545189	0

    writing force and moment coefficient files.

Time = 0.8

smoothSolver:  Solving for Ux, Initial residual = 0.0281699, Final residual = 9.09259e-13, No Iterations 23
smoothSolver:  Solving for Uy, Initial residual = 0.0200627, Final residual = 4.95377e-13, No Iterations 23
GAMG:  Solving for p, Initial residual = 0.0442788, Final residual = 8.74554e-13, No Iterations 40
time step continuity errors : sum local = 2.08384e-14, global = 8.61289e-16, cumulative = 2.76264e-15
smoothSolver:  Solving for epsilon, Initial residual = 0.0390756, Final residual = 7.98524e-13, No Iterations 23
bounding epsilon, min: -0.00462883 max: 1.55299 average: 0.00315488
smoothSolver:  Solving for k, Initial residual = 0.0392652, Final residual = 4.98153e-13, No Iterations 24
bounding k, min: -0.000882817 max: 0.759851 average: 0.00764297
ExecutionTime = 4.75 s  ClockTime = 5 s

forceCoeffs forceCoeffs write:
    Coefficient	Total	Pressure	Viscous	Internal
    Cd:	0.847471	0.740718	0.106753	0
    Cd(f):	0.44375	0.390632	0.0531179	0
    Cd(r):	0.403721	0.350086	0.0536351	0
    Cl:	-0.0400284	-0.0405455	0.000517156	0
    Cl(f):	-0.0201132	-0.0202728	0.00015962	0
    Cl(r):	-0.0199152	-0.0202728	0.000357537	0
    CmPitch:	-9.89585e-05	5.41743e-14	-9.89585e-05	0
    CmRoll:	0.0200142	0.0202728	-0.000258578	0
    CmYaw:	0.423736	0.370359	0.0533765	0
    Cs:	-3.12169e-20	-2.14302e-20	-9.78667e-21	0
    Cs(f):	0.423736	0.370359	0.0533765	0
    Cs(r):	-0.423736	-0.370359	-0.0533765	0

    writing force and moment coefficient files.

Time = 0.9

smoothSolver:  Solving for Ux, Initial residual = 0.0243619, Final residual = 8.49177e-13, No Iterations 23
smoothSolver:  Solving for Uy, Initial residual = 0.0181574, Final residual = 4.73412e-13, No Iterations 23
GAMG:  Solving for p, Initial residual = 0.0414958, Final residual = 9.96506e-13, No Iterations 39
time step continuity errors : sum local = 2.23747e-14, global = 8.95213e-16, cumulative = 3.65785e-15
smoothSolver:  Solving for epsilon, Initial residual = 0.032486, Final residual = 5.10932e-13, No Iterations 23
bounding epsilon, min: -0.00545347 max: 1.42983 average: 0.00335841
smoothSolver:  Solving for k, Initial residual = 0.033055, Final residual = 8.50854e-13, No Iterations 23
bounding k, min: -0.00139252 max: 0.764518 average: 0.00790417
ExecutionTime = 5.18 s  ClockTime = 6 s

forceCoeffs forceCoeffs write:
    Coefficient	Total	Pressure	Viscous	Internal
    Cd:	0.831761	0.727559	0.104202	0
    Cd(f):	0.436234	0.384345	0.0518884	0
    Cd(r):	0.395527	0.343213	0.0523137	0
    Cl:	-0.0407067	-0.0411319	0.000425234	0
    Cl(f):	-0.020445	-0.020566	0.000120981	0
    Cl(r):	-0.0202617	-0.020566	0.000304253	0
    CmPitch:	-9.16359e-05	-2.66653e-13	-9.16359e-05	0
    CmRoll:	0.0203534	0.020566	-0.000212617	0
    CmYaw:	0.41588	0.363779	0.0521011	0
    Cs:	-2.99301e-20	-1.9879e-20	-1.00511e-20	0
    Cs(f):	0.41588	0.363779	0.0521011	0
    Cs(r):	-0.41588	-0.363779	-0.0521011	0

    writing force and moment coefficient files.

Time = 1

smoothSolver:  Solving for Ux, Initial residual = 0.0216194, Final residual = 8.10776e-13, No Iterations 23
smoothSolver:  Solving for Uy, Initial residual = 0.0167632, Final residual = 4.59862e-13, No Iterations 23
GAMG:  Solving for p, Initial residual = 0.0390939, Final residual = 6.67843e-13, No Iterations 40
time step continuity errors : sum local = 1.43481e-14, global = 6.54983e-16, cumulative = 4.31283e-15
smoothSolver:  Solving for epsilon, Initial residual = 0.0270229, Final residual = 9.95387e-13, No Iterations 22
bounding epsilon, min: -0.0115641 max: 1.28317 average: 0.00354302
smoothSolver:  Solving for k, Initial residual = 0.0285533, Final residual = 6.46723e-13, No Iterations 23
bounding k, min: -0.000579078 max: 0.751221 average: 0.00813673
ExecutionTime = 5.6 s  ClockTime = 6 s

forceCoeffs forceCoeffs write:
    Coefficient	Total	Pressure	Viscous	Internal
    Cd:	0.820834	0.719212	0.101622	0
    Cd(f):	0.431028	0.380377	0.0506509	0
    Cd(r):	0.389806	0.338835	0.0509709	0
    Cl:	-0.0412215	-0.0415414	0.000319987	0
    Cl(f):	-0.0206846	-0.0207707	8.61103e-05	0
    Cl(r):	-0.0205368	-0.0207707	0.000233876	0
    CmPitch:	-7.3883e-05	-5.63027e-13	-7.3883e-05	0
    CmRoll:	0.0206107	0.0207707	-0.000159993	0
    CmYaw:	0.410417	0.359606	0.0508109	0
    Cs:	-2.85545e-20	-1.87696e-20	-9.78495e-21	0
    Cs(f):	0.410417	0.359606	0.0508109	0
    Cs(r):	-0.410417	-0.359606	-0.0508109	0

    writing force and moment coefficient files.

Time = 1.1

smoothSolver:  Solving for Ux, Initial residual = 0.0194709, Final residual = 7.76019e-13, No Iterations 23
smoothSolver:  Solving for Uy, Initial residual = 0.0158811, Final residual = 4.50017e-13, No Iterations 23
GAMG:  Solving for p, Initial residual = 0.0373528, Final residual = 9.56345e-13, No Iterations 39
time step continuity errors : sum local = 1.98058e-14, global = 8.05871e-16, cumulative = 5.1187e-15
smoothSolver:  Solving for epsilon, Initial residual = 0.0242248, Final residual = 7.63372e-13, No Iterations 22
bounding epsilon, min: -0.0135032 max: 1.14527 average: 0.00369965
smoothSolver:  Solving for k, Initial residual = 0.0252626, Final residual = 5.53096e-13, No Iterations 23
bounding k, min: -0.0148148 max: 0.722308 average: 0.00834431
ExecutionTime = 6.01 s  ClockTime = 7 s

forceCoeffs forceCoeffs write:
    Coefficient	Total	Pressure	Viscous	Internal
    Cd:	0.814277	0.715187	0.0990906	0
    Cd(f):	0.42772	0.378275	0.0494451	0
    Cd(r):	0.386557	0.336912	0.0496455	0
    Cl:	-0.0411624	-0.0413628	0.000200397	0
    Cl(f):	-0.0206265	-0.0206814	5.49171e-05	0
    Cl(r):	-0.0205359	-0.0206814	0.00014548	0
    CmPitch:	-4.52813e-05	-6.66671e-13	-4.52813e-05	0
    CmRoll:	0.0205812	0.0206814	-0.000100198	0
    CmYaw:	0.407139	0.357593	0.0495453	0
    Cs:	-2.70379e-20	-1.79168e-20	-9.12114e-21	0
    Cs(f):	0.407139	0.357593	0.0495453	0
    Cs(r):	-0.407139	-0.357593	-0.0495453	0

    writing force and moment coefficient files.

Time = 1.2

smoothSolver:  Solving for Ux, Initial residual = 0.0179993, Final residual = 7.45158e-13, No Iterations 23
smoothSolver:  Solving for Uy, Initial residual = 0.0152663, Final residual = 4.43939e-13, No Iterations 23
GAMG:  Solving for p, Initial residual = 0.0359141, Final residual = 6.06963e-13, No Iterations 40
time step continuity errors : sum local = 1.2218e-14, global = 5.63505e-16, cumulative = 5.68221e-15
smoothSolver:  Solving for epsilon, Initial residual = 0.0222763, Final residual = 5.97492e-13, No Iterations 22
bounding epsilon, min: -0.0277266 max: 1.0269 average: 0.00383885
smoothSolver:  Solving for k, Initial residual = 0.0230214, Final residual = 4.9119e-13, No Iterations 23
bounding k, min: -0.0180282 max: 0.681721 average: 0.00853485
ExecutionTime = 6.44 s  ClockTime = 7 s

forceCoeffs forceCoeffs write:
    Coefficient	Total	Pressure	Viscous	Internal
    Cd:	0.81126	0.714635	0.0966247	0
    Cd(f):	0.425803	0.37752	0.0482831	0
    Cd(r):	0.385457	0.337115	0.0483416	0
    Cl:	-0.0403463	-0.0404049	5.85668e-05	0
    Cl(f):	-0.0201754	-0.0202024	2.70219e-05	0
    Cl(r):	-0.0201709	-0.0202024	3.15449e-05	0
    CmPitch:	-2.2615e-06	-8.50181e-13	-2.2615e-06	0
    CmRoll:	0.0201732	0.0202024	-2.92834e-05	0
    CmYaw:	0.40563	0.357318	0.0483123	0
    Cs:	-2.45716e-20	-1.72675e-20	-7.30411e-21	0
    Cs(f):	0.40563	0.357318	0.0483123	0
    Cs(r):	-0.40563	-0.357318	-0.0483123	0

    writing force and moment coefficient files.

Time = 1.3

smoothSolver:  Solving for Ux, Initial residual = 0.0166771, Final residual = 7.16827e-13, No Iterations 23
smoothSolver:  Solving for Uy, Initial residual = 0.0149071, Final residual = 4.42661e-13, No Iterations 23
GAMG:  Solving for p, Initial residual = 0.0340852, Final residual = 9.14935e-13, No Iterations 39
time step continuity errors : sum local = 1.79952e-14, global = 7.23658e-16, cumulative = 6.40587e-15
smoothSolver:  Solving for epsilon, Initial residual = 0.0194609, Final residual = 4.84395e-13, No Iterations 22
bounding epsilon, min: -0.0315835 max: 1.05206 average: 0.00396511
smoothSolver:  Solving for k, Initial residual = 0.0210372, Final residual = 4.35566e-13, No Iterations 23
bounding k, min: -0.0230402 max: 0.650554 average: 0.00870874
ExecutionTime = 6.87 s  ClockTime = 7 s

forceCoeffs forceCoeffs write:
    Coefficient	Total	Pressure	Viscous	Internal
    Cd:	0.809475	0.715257	0.0942173	0
    Cd(f):	0.424196	0.377047	0.0471489	0
    Cd(r):	0.385279	0.33821	0.0470684	0
    Cl:	-0.0389172	-0.0388367	-8.05369e-05	0
    Cl(f):	-0.0194167	-0.0194183	1.61383e-06	0
    Cl(r):	-0.0195005	-0.0194183	-8.21507e-05	0
    CmPitch:	4.18823e-05	-1.0006e-12	4.18823e-05	0
    CmRoll:	0.0194586	0.0194183	4.02684e-05	0
    CmYaw:	0.404737	0.357629	0.0471086	0
    Cs:	-2.28448e-20	-1.6664e-20	-6.18077e-21	0
    Cs(f):	0.404737	0.357629	0.0471086	0
    Cs(r):	-0.404737	-0.357629	-0.0471086	0

    writing force and moment coefficient files.

Time = 1.4

smoothSolver:  Solving for Ux, Initial residual = 0.0154596, Final residual = 6.90255e-13, No Iterations 23
smoothSolver:  Solving for Uy, Initial residual = 0.0141261, Final residual = 4.36932e-13, No Iterations 23
GAMG:  Solving for p, Initial residual = 0.0316483, Final residual = 7.31458e-13, No Iterations 40
time step continuity errors : sum local = 1.41268e-14, global = 6.48443e-16, cumulative = 7.05431e-15
smoothSolver:  Solving for epsilon, Initial residual = 0.0188776, Final residual = 4.0032e-13, No Iterations 22
bounding epsilon, min: -0.0314008 max: 1.0326 average: 0.00407947
smoothSolver:  Solving for k, Initial residual = 0.0194117, Final residual = 4.08863e-13, No Iterations 23
bounding k, min: -0.0239645 max: 0.624439 average: 0.00887148
ExecutionTime = 7.29 s  ClockTime = 8 s

forceCoeffs forceCoeffs write:
    Coefficient	Total	Pressure	Viscous	Internal
    Cd:	0.813986	0.722115	0.0918713	0
    Cd(f):	0.426122	0.380075	0.0460468	0
    Cd(r):	0.387864	0.342039	0.0458245	0
    Cl:	-0.0382584	-0.0380361	-0.000222251	0
    Cl(f):	-0.0190388	-0.0190181	-2.0743e-05	0
    Cl(r):	-0.0192196	-0.0190181	-0.000201508	0
    CmPitch:	9.03824e-05	-1.14392e-12	9.03824e-05	0
    CmRoll:	0.0191292	0.0190181	0.000111125	0
    CmYaw:	0.406993	0.361057	0.0459357	0
    Cs:	-2.23277e-20	-1.63069e-20	-6.02074e-21	0
    Cs(f):	0.406993	0.361057	0.0459357	0
    Cs(r):	-0.406993	-0.361057	-0.0459357	0

    writing force and moment coefficient files.

Time = 1.5

smoothSolver:  Solving for Ux, Initial residual = 0.0146255, Final residual = 6.67916e-13, No Iterations 23
smoothSolver:  Solving for Uy, Initial residual = 0.0136503, Final residual = 4.38041e-13, No Iterations 23
GAMG:  Solving for p, Initial residual = 0.0306176, Final residual = 6.58801e-13, No Iterations 40
time step continuity errors : sum local = 1.24553e-14, global = 5.76107e-16, cumulative = 7.63042e-15
smoothSolver:  Solving for epsilon, Initial residual = 0.0168884, Final residual = 3.6692e-13, No Iterations 22
bounding epsilon, min: -0.0292842 max: 0.978614 average: 0.00418622
smoothSolver:  Solving for k, Initial residual = 0.0181942, Final residual = 3.99937e-13, No Iterations 23
bounding k, min: -0.0223215 max: 0.593398 average: 0.00902566
ExecutionTime = 7.72 s  ClockTime = 8 s

forceCoeffs forceCoeffs write:
    Coefficient	Total	Pressure	Viscous	Internal
    Cd:	0.819618	0.730003	0.0896146	0
    Cd(f):	0.42827	0.383286	0.0449836	0
    Cd(r):	0.391348	0.346717	0.0446311	0
    Cl:	-0.0369219	-0.0365694	-0.000352517	0
    Cl(f):	-0.0183245	-0.0182847	-3.97644e-05	0
    Cl(r):	-0.0185975	-0.0182847	-0.000312753	0
    CmPitch:	0.000136494	-1.17733e-12	0.000136494	0
    CmRoll:	0.018461	0.0182847	0.000176259	0
    CmYaw:	0.409809	0.365002	0.0448073	0
    Cs:	-2.15013e-20	-1.5981e-20	-5.52024e-21	0
    Cs(f):	0.409809	0.365002	0.0448073	0
    Cs(r):	-0.409809	-0.365002	-0.0448073	0

    writing force and moment coefficient files.

Time = 1.6

smoothSolver:  Solving for Ux, Initial residual = 0.0138099, Final residual = 6.49062e-13, No Iterations 23
smoothSolver:  Solving for Uy, Initial residual = 0.013088, Final residual = 4.36471e-13, No Iterations 23
GAMG:  Solving for p, Initial residual = 0.0286064, Final residual = 6.25984e-13, No Iterations 40
time step continuity errors : sum local = 1.16357e-14, global = 5.45419e-16, cumulative = 8.17584e-15
smoothSolver:  Solving for epsilon, Initial residual = 0.0158726, Final residual = 3.73597e-13, No Iterations 22
bounding epsilon, min: -0.0322236 max: 0.89848 average: 0.00428996
smoothSolver:  Solving for k, Initial residual = 0.016997, Final residual = 3.96268e-13, No Iterations 23
bounding k, min: -0.025082 max: 0.560781 average: 0.00917129
ExecutionTime = 8.13 s  ClockTime = 9 s

forceCoeffs forceCoeffs write:
    Coefficient	Total	Pressure	Viscous	Internal
    Cd:	0.826609	0.739116	0.0874939	0
    Cd(f):	0.431479	0.387494	0.0439856	0
    Cd(r):	0.39513	0.351622	0.0435083	0
    Cl:	-0.036349	-0.0358717	-0.000477332	0
    Cl(f):	-0.0179941	-0.0179359	-5.82509e-05	0
    Cl(r):	-0.0183549	-0.0179359	-0.000419081	0
    CmPitch:	0.000180415	-1.14503e-12	0.000180415	0
    CmRoll:	0.0181745	0.0179359	0.000238666	0
    CmYaw:	0.413305	0.369558	0.0437469	0
    Cs:	-2.07849e-20	-1.57597e-20	-5.02521e-21	0
    Cs(f):	0.413305	0.369558	0.0437469	0
    Cs(r):	-0.413305	-0.369558	-0.0437469	0

    writing force and moment coefficient files.

Time = 1.7

smoothSolver:  Solving for Ux, Initial residual = 0.0131137, Final residual = 6.31723e-13, No Iterations 23
smoothSolver:  Solving for Uy, Initial residual = 0.0126674, Final residual = 4.35642e-13, No Iterations 23
GAMG:  Solving for p, Initial residual = 0.027392, Final residual = 6.07388e-13, No Iterations 40
time step continuity errors : sum local = 1.10716e-14, global = 5.21288e-16, cumulative = 8.69712e-15
smoothSolver:  Solving for epsilon, Initial residual = 0.0152181, Final residual = 3.86778e-13, No Iterations 22
bounding epsilon, min: -0.0322228 max: 0.82044 average: 0.0043943
smoothSolver:  Solving for k, Initial residual = 0.01602, Final residual = 3.84567e-13, No Iterations 23
bounding k, min: -0.0257228 max: 0.541079 average: 0.0093113
ExecutionTime = 8.56 s  ClockTime = 9 s

forceCoeffs forceCoeffs write:
    Coefficient	Total	Pressure	Viscous	Internal
    Cd:	0.834834	0.749298	0.0855357	0
    Cd(f):	0.435598	0.392563	0.0430357	0
    Cd(r):	0.399235	0.356735	0.0425	0
    Cl:	-0.0363635	-0.0358278	-0.000535644	0
    Cl(f):	-0.0179898	-0.0179139	-7.58922e-05	0
    Cl(r):	-0.0183737	-0.0179139	-0.000459752	0
    CmPitch:	0.00019193	-1.16026e-12	0.00019193	0
    CmRoll:	0.0181817	0.0179139	0.000267822	0
    CmYaw:	0.417417	0.374649	0.0427678	0
    Cs:	-2.01761e-20	-1.5705e-20	-4.47116e-21	0
    Cs(f):	0.417417	0.374649	0.0427678	0
    Cs(r):	-0.417417	-0.374649	-0.0427678	0

    writing force and moment coefficient files.

Time = 1.8

smoothSolver:  Solving for Ux, Initial residual = 0.0125196, Final residual = 6.17804e-13, No Iterations 23
smoothSolver:  Solving for Uy, Initial residual = 0.0122885, Final residual = 4.33436e-13, No Iterations 23
GAMG:  Solving for p, Initial residual = 0.0262373, Final residual = 5.98657e-13, No Iterations 40
time step continuity errors : sum local = 1.07101e-14, global = 5.03829e-16, cumulative = 9.20095e-15
smoothSolver:  Solving for epsilon, Initial residual = 0.0145033, Final residual = 3.99067e-13, No Iterations 22
bounding epsilon, min: -0.0293269 max: 0.760477 average: 0.00449981
smoothSolver:  Solving for k, Initial residual = 0.0151268, Final residual = 9.75143e-13, No Iterations 22
bounding k, min: -0.0238048 max: 0.519695 average: 0.00944612
ExecutionTime = 9 s  ClockTime = 9 s

forceCoeffs forceCoeffs write:
    Coefficient	Total	Pressure	Viscous	Internal
    Cd:	0.843553	0.759818	0.0837352	0
    Cd(f):	0.439879	0.397718	0.0421618	0
    Cd(r):	0.403674	0.362101	0.0415734	0
    Cl:	-0.0362052	-0.0356168	-0.000588375	0
    Cl(f):	-0.0178994	-0.0178084	-9.10193e-05	0
    Cl(r):	-0.0183058	-0.0178084	-0.000497356	0
    CmPitch:	0.000203168	-1.17993e-12	0.000203168	0
    CmRoll:	0.0181026	0.0178084	0.000294188	0
    CmYaw:	0.421777	0.379909	0.0418676	0
    Cs:	-1.95073e-20	-1.57318e-20	-3.77551e-21	0
    Cs(f):	0.421777	0.379909	0.0418676	0
    Cs(r):	-0.421777	-0.379909	-0.0418676	0

    writing force and moment coefficient files.

Time = 1.9

smoothSolver:  Solving for Ux, Initial residual = 0.012012, Final residual = 6.05737e-13, No Iterations 23
smoothSolver:  Solving for Uy, Initial residual = 0.0119977, Final residual = 4.30393e-13, No Iterations 23
GAMG:  Solving for p, Initial residual = 0.0253068, Final residual = 5.8751e-13, No Iterations 40
time step continuity errors : sum local = 1.03204e-14, global = 4.88301e-16, cumulative = 9.68925e-15
smoothSolver:  Solving for epsilon, Initial residual = 0.0134615, Final residual = 4.28723e-13, No Iterations 22
bounding epsilon, min: -0.0252603 max: 0.789834 average: 0.00460433
smoothSolver:  Solving for k, Initial residual = 0.0143003, Final residual = 9.43593e-13, No Iterations 22
bounding k, min: -0.020396 max: 0.496976 average: 0.00957759
ExecutionTime = 9.43 s  ClockTime = 10 s

forceCoeffs forceCoeffs write:
    Coefficient	Total	Pressure	Viscous	Internal
    Cd:	0.852805	0.770737	0.0820676	0
    Cd(f):	0.444255	0.402903	0.0413517	0
    Cd(r):	0.40855	0.367834	0.0407159	0
    Cl:	-0.0357044	-0.0350686	-0.000635758	0
    Cl(f):	-0.0176384	-0.0175343	-0.000104145	0
    Cl(r):	-0.0180659	-0.0175343	-0.000531614	0
    CmPitch:	0.000213734	-1.13691e-12	0.000213734	0
    CmRoll:	0.0178522	0.0175343	0.000317879	0
    CmYaw:	0.426402	0.385369	0.0410338	0
    Cs:	-1.91119e-20	-1.57803e-20	-3.33154e-21	0
    Cs(f):	0.426402	0.385369	0.0410338	0
    Cs(r):	-0.426402	-0.385369	-0.0410338	0

    writing force and moment coefficient files.

Time = 2

smoothSolver:  Solving for Ux, Initial residual = 0.011556, Final residual = 5.9531e-13, No Iterations 23
smoothSolver:  Solving for Uy, Initial residual = 0.0117806, Final residual = 4.28307e-13, No Iterations 23
GAMG:  Solving for p, Initial residual = 0.0246001, Final residual = 6.38176e-13, No Iterations 40
time step continuity errors : sum local = 1.10408e-14, global = 5.1986e-16, cumulative = 1.02091e-14
smoothSolver:  Solving for epsilon, Initial residual = 0.0130556, Final residual = 4.57258e-13, No Iterations 22
bounding epsilon, min: -0.0208265 max: 0.81271 average: 0.00470762
smoothSolver:  Solving for k, Initial residual = 0.0135655, Final residual = 9.23392e-13, No Iterations 22
bounding k, min: -0.0168915 max: 0.483795 average: 0.00970522
ExecutionTime = 9.85 s  ClockTime = 10 s

forceCoeffs forceCoeffs write:
    Coefficient	Total	Pressure	Viscous	Internal
    Cd:	0.863552	0.783045	0.0805074	0
    Cd(f):	0.449311	0.408729	0.040582	0
    Cd(r):	0.414242	0.374316	0.0399254	0
    Cl:	-0.0350691	-0.0344125	-0.000656605	0
    Cl(f):	-0.017321	-0.0172062	-0.000114724	0
    Cl(r):	-0.0177481	-0.0172062	-0.00054188	0
    CmPitch:	0.000213578	-1.01781e-12	0.000213578	0
    CmRoll:	0.0175345	0.0172062	0.000328302	0
    CmYaw:	0.431776	0.391522	0.0402537	0
    Cs:	-1.87059e-20	-1.58557e-20	-2.85018e-21	0
    Cs(f):	0.431776	0.391522	0.0402537	0
    Cs(r):	-0.431776	-0.391522	-0.0402537	0

    writing force and moment coefficient files.

Time = 2.1

smoothSolver:  Solving for Ux, Initial residual = 0.0111007, Final residual = 5.86999e-13, No Iterations 23
smoothSolver:  Solving for Uy, Initial residual = 0.0114652, Final residual = 4.27821e-13, No Iterations 23
GAMG:  Solving for p, Initial residual = 0.0240384, Final residual = 6.28249e-13, No Iterations 40
time step continuity errors : sum local = 1.07266e-14, global = 5.01129e-16, cumulative = 1.07102e-14
smoothSolver:  Solving for epsilon, Initial residual = 0.0123574, Final residual = 4.83182e-13, No Iterations 22
bounding epsilon, min: -0.0169359 max: 0.823886 average: 0.00481021
smoothSolver:  Solving for k, Initial residual = 0.0129166, Final residual = 9.08914e-13, No Iterations 22
bounding k, min: -0.0125216 max: 0.469454 average: 0.00982997
ExecutionTime = 10.27 s  ClockTime = 11 s

forceCoeffs forceCoeffs write:
    Coefficient	Total	Pressure	Viscous	Internal
    Cd:	0.875095	0.796054	0.0790415	0
    Cd(f):	0.45462	0.414761	0.039859	0
    Cd(r):	0.420475	0.381292	0.0391825	0
    Cl:	-0.0341458	-0.0334693	-0.000676453	0
    Cl(f):	-0.0168616	-0.0167347	-0.000126915	0
    Cl(r):	-0.0172842	-0.0167347	-0.000549538	0
    CmPitch:	0.000211311	-9.07263e-13	0.000211311	0
    CmRoll:	0.0170729	0.0167347	0.000338226	0
    CmYaw:	0.437548	0.398027	0.0395207	0
    Cs:	-1.84891e-20	-1.59249e-20	-2.56421e-21	0
    Cs(f):	0.437548	0.398027	0.0395207	0
    Cs(r):	-0.437548	-0.398027	-0.0395207	0

    writing force and moment coefficient files.

Time = 2.2

smoothSolver:  Solving for Ux, Initial residual = 0.0107404, Final residual = 5.79841e-13, No Iterations 23
smoothSolver:  Solving for Uy, Initial residual = 0.0111743, Final residual = 4.26414e-13, No Iterations 23
GAMG:  Solving for p, Initial residual = 0.0235495, Final residual = 9.9453e-13, No Iterations 39
time step continuity errors : sum local = 1.67167e-14, global = 6.61347e-16, cumulative = 1.13716e-14
smoothSolver:  Solving for epsilon, Initial residual = 0.0125832, Final residual = 5.0446e-13, No Iterations 22
bounding epsilon, min: -0.0129707 max: 0.838495 average: 0.0049087
smoothSolver:  Solving for k, Initial residual = 0.0123477, Final residual = 9.05279e-13, No Iterations 22
bounding k, min: -0.00912036 max: 0.453989 average: 0.0099525
ExecutionTime = 10.69 s  ClockTime = 11 s

forceCoeffs forceCoeffs write:
    Coefficient	Total	Pressure	Viscous	Internal
    Cd:	0.887824	0.810172	0.0776527	0
    Cd(f):	0.46048	0.421313	0.039167	0
    Cd(r):	0.427344	0.388858	0.0384857	0
    Cl:	-0.0331366	-0.0324552	-0.000681337	0
    Cl(f):	-0.01637	-0.0162276	-0.000142414	0
    Cl(r):	-0.0167665	-0.0162276	-0.000538923	0
    CmPitch:	0.000198254	-8.82568e-13	0.000198254	0
    CmRoll:	0.0165683	0.0162276	0.000340668	0
    CmYaw:	0.443912	0.405086	0.0388264	0
    Cs:	-1.82882e-20	-1.60208e-20	-2.2674e-21	0
    Cs(f):	0.443912	0.405086	0.0388264	0
    Cs(r):	-0.443912	-0.405086	-0.0388264	0

    writing force and moment coefficient files.

Time = 2.3

smoothSolver:  Solving for Ux, Initial residual = 0.010359, Final residual = 5.74467e-13, No Iterations 23
smoothSolver:  Solving for Uy, Initial residual = 0.0109145, Final residual = 4.25325e-13, No Iterations 23
GAMG:  Solving for p, Initial residual = 0.0229718, Final residual = 6.44061e-13, No Iterations 40
time step continuity errors : sum local = 1.07267e-14, global = 4.96209e-16, cumulative = 1.18678e-14
smoothSolver:  Solving for epsilon, Initial residual = 0.0109735, Final residual = 5.21628e-13, No Iterations 22
bounding epsilon, min: -0.00997215 max: 0.853063 average: 0.00500394
smoothSolver:  Solving for k, Initial residual = 0.0117993, Final residual = 9.05223e-13, No Iterations 22
bounding k, min: -0.00613652 max: 0.447691 average: 0.0100732
ExecutionTime = 11.11 s  ClockTime = 12 s

forceCoeffs forceCoeffs write:
    Coefficient	Total	Pressure	Viscous	Internal
    Cd:	0.901198	0.824835	0.0763628	0
    Cd(f):	0.466645	0.428122	0.0385232	0
    Cd(r):	0.434553	0.396713	0.0378397	0
    Cl:	-0.032092	-0.0314085	-0.000683491	0
    Cl(f):	-0.0158598	-0.0157043	-0.000155514	0
    Cl(r):	-0.0162322	-0.0157043	-0.000527977	0
    CmPitch:	0.000186232	-8.27754e-13	0.000186232	0
    CmRoll:	0.016046	0.0157043	0.000341745	0
    CmYaw:	0.450599	0.412418	0.0381814	0
    Cs:	-1.81025e-20	-1.61414e-20	-1.96106e-21	0
    Cs(f):	0.450599	0.412418	0.0381814	0
    Cs(r):	-0.450599	-0.412418	-0.0381814	0

    writing force and moment coefficient files.

Time = 2.4

smoothSolver:  Solving for Ux, Initial residual = 0.0100619, Final residual = 5.70303e-13, No Iterations 23
smoothSolver:  Solving for Uy, Initial residual = 0.0107075, Final residual = 4.24838e-13, No Iterations 23
GAMG:  Solving for p, Initial residual = 0.0225365, Final residual = 6.42449e-13, No Iterations 40
time step continuity errors : sum local = 1.0578e-14, global = 4.82289e-16, cumulative = 1.23501e-14
smoothSolver:  Solving for epsilon, Initial residual = 0.0103931, Final residual = 5.3281e-13, No Iterations 22
bounding epsilon, min: -0.00788469 max: 0.861384 average: 0.00509928
smoothSolver:  Solving for k, Initial residual = 0.0113394, Final residual = 8.90402e-13, No Iterations 22
bounding k, min: -0.00401577 max: 0.444001 average: 0.0101923
ExecutionTime = 11.55 s  ClockTime = 12 s

forceCoeffs forceCoeffs write:
    Coefficient	Total	Pressure	Viscous	Internal
    Cd:	0.915238	0.840083	0.0751552	0
    Cd(f):	0.473112	0.435187	0.0379249	0
    Cd(r):	0.442127	0.404896	0.0372303	0
    Cl:	-0.030985	-0.0302904	-0.000694569	0
    Cl(f):	-0.015309	-0.0151452	-0.0001638	0
    Cl(r):	-0.015676	-0.0151452	-0.00053077	0
    CmPitch:	0.000183485	-7.69941e-13	0.000183485	0
    CmRoll:	0.0154925	0.0151452	0.000347285	0
    CmYaw:	0.457619	0.420042	0.0375776	0
    Cs:	-1.79683e-20	-1.62921e-20	-1.67622e-21	0
    Cs(f):	0.457619	0.420042	0.0375776	0
    Cs(r):	-0.457619	-0.420042	-0.0375776	0

    writing force and moment coefficient files.

Time = 2.5

smoothSolver:  Solving for Ux, Initial residual = 0.00975773, Final residual = 5.67817e-13, No Iterations 23
smoothSolver:  Solving for Uy, Initial residual = 0.0104904, Final residual = 4.24612e-13, No Iterations 23
GAMG:  Solving for p, Initial residual = 0.0218532, Final residual = 6.37918e-13, No Iterations 40
time step continuity errors : sum local = 1.04119e-14, global = 4.74964e-16, cumulative = 1.28251e-14
smoothSolver:  Solving for epsilon, Initial residual = 0.00987663, Final residual = 5.47512e-13, No Iterations 22
bounding epsilon, min: -0.00625069 max: 0.87624 average: 0.00519179
smoothSolver:  Solving for k, Initial residual = 0.0108253, Final residual = 8.64909e-13, No Iterations 22
bounding k, min: -0.00241918 max: 0.440312 average: 0.0103092
ExecutionTime = 11.98 s  ClockTime = 12 s

forceCoeffs forceCoeffs write:
    Coefficient	Total	Pressure	Viscous	Internal
    Cd:	0.929827	0.855813	0.0740144	0
    Cd(f):	0.480144	0.442781	0.0373627	0
    Cd(r):	0.449683	0.413032	0.0366517	0
    Cl:	-0.0304603	-0.0297493	-0.000711012	0
    Cl(f):	-0.0150466	-0.0148747	-0.000171937	0
    Cl(r):	-0.0154137	-0.0148747	-0.000539076	0
    CmPitch:	0.00018357	-6.61649e-13	0.00018357	0
    CmRoll:	0.0152302	0.0148747	0.000355506	0
    CmYaw:	0.464914	0.427906	0.0370072	0
    Cs:	-1.79046e-20	-1.64974e-20	-1.4072e-21	0
    Cs(f):	0.464914	0.427906	0.0370072	0
    Cs(r):	-0.464914	-0.427906	-0.0370072	0

    writing force and moment coefficient files.

Time = 2.6

smoothSolver:  Solving for Ux, Initial residual = 0.00949465, Final residual = 5.66276e-13, No Iterations 23
smoothSolver:  Solving for Uy, Initial residual = 0.0102951, Final residual = 4.24545e-13, No Iterations 23
GAMG:  Solving for p, Initial residual = 0.0214804, Final residual = 6.25501e-13, No Iterations 40
time step continuity errors : sum local = 1.01121e-14, global = 4.59101e-16, cumulative = 1.32842e-14
smoothSolver:  Solving for epsilon, Initial residual = 0.00934514, Final residual = 5.55099e-13, No Iterations 22
bounding epsilon, min: -0.00505432 max: 0.892542 average: 0.00528081
smoothSolver:  Solving for k, Initial residual = 0.0104196, Final residual = 8.57012e-13, No Iterations 22
bounding k, min: -0.00123259 max: 0.436638 average: 0.0104235
ExecutionTime = 12.41 s  ClockTime = 13 s

forceCoeffs forceCoeffs write:
    Coefficient	Total	Pressure	Viscous	Internal
    Cd:	0.944878	0.871936	0.0729417	0
    Cd(f):	0.487374	0.450538	0.0368361	0
    Cd(r):	0.457504	0.421398	0.0361056	0
    Cl:	-0.0298697	-0.0291393	-0.000730463	0
    Cl(f):	-0.0147493	-0.0145696	-0.000179715	0
    Cl(r):	-0.0151204	-0.0145696	-0.000550748	0
    CmPitch:	0.000185516	-5.34434e-13	0.000185516	0
    CmRoll:	0.0149349	0.0145696	0.000365231	0
    CmYaw:	0.472439	0.435968	0.0364709	0
    Cs:	-1.78522e-20	-1.67092e-20	-1.14298e-21	0
    Cs(f):	0.472439	0.435968	0.0364709	0
    Cs(r):	-0.472439	-0.435968	-0.0364709	0

    writing force and moment coefficient files.

Time = 2.7

smoothSolver:  Solving for Ux, Initial residual = 0.00925333, Final residual = 5.66066e-13, No Iterations 23
smoothSolver:  Solving for Uy, Initial residual = 0.0101189, Final residual = 4.23767e-13, No Iterations 23
GAMG:  Solving for p, Initial residual = 0.0212644, Final residual = 6.01884e-13, No Iterations 40
time step continuity errors : sum local = 9.64497e-15, global = 4.31883e-16, cumulative = 1.3716e-14
smoothSolver:  Solving for epsilon, Initial residual = 0.00910569, Final residual = 5.62378e-13, No Iterations 22
bounding epsilon, min: -0.004265 max: 0.902222 average: 0.00536794
smoothSolver:  Solving for k, Initial residual = 0.00997106, Final residual = 8.47852e-13, No Iterations 22
bounding k, min: -0.000487701 max: 0.432992 average: 0.010536
ExecutionTime = 12.83 s  ClockTime = 13 s

forceCoeffs forceCoeffs write:
    Coefficient	Total	Pressure	Viscous	Internal
    Cd:	0.959933	0.887997	0.0719358	0
    Cd(f):	0.494703	0.458363	0.0363403	0
    Cd(r):	0.465229	0.429634	0.0355955	0
    Cl:	-0.0294739	-0.0287291	-0.000744851	0
    Cl(f):	-0.0145523	-0.0143645	-0.000187716	0
    Cl(r):	-0.0149217	-0.0143645	-0.000557135	0
    CmPitch:	0.00018471	-4.10248e-13	0.00018471	0
    CmRoll:	0.014737	0.0143645	0.000372425	0
    CmYaw:	0.479966	0.443998	0.0359679	0
    Cs:	-1.78567e-20	-1.68951e-20	-9.61591e-22	0
    Cs(f):	0.479966	0.443998	0.0359679	0
    Cs(r):	-0.479966	-0.443998	-0.0359679	0

    writing force and moment coefficient files.

Time = 2.8

smoothSolver:  Solving for Ux, Initial residual = 0.00904041, Final residual = 5.66337e-13, No Iterations 23
smoothSolver:  Solving for Uy, Initial residual = 0.00998383, Final residual = 4.24076e-13, No Iterations 23
GAMG:  Solving for p, Initial residual = 0.0212117, Final residual = 5.99459e-13, No Iterations 40
time step continuity errors : sum local = 9.51207e-15, global = 4.25896e-16, cumulative = 1.41419e-14
smoothSolver:  Solving for epsilon, Initial residual = 0.00867825, Final residual = 5.66026e-13, No Iterations 22
bounding epsilon, min: -0.00398624 max: 0.905475 average: 0.00545176
smoothSolver:  Solving for k, Initial residual = 0.0096074, Final residual = 8.24278e-13, No Iterations 22
bounding k, min: -0.000671979 max: 0.429383 average: 0.0106478
ExecutionTime = 13.26 s  ClockTime = 14 s

forceCoeffs forceCoeffs write:
    Coefficient	Total	Pressure	Viscous	Internal
    Cd:	0.975535	0.904536	0.0709987	0
    Cd(f):	0.50242	0.466544	0.0358754	0
    Cd(r):	0.473115	0.437992	0.0351234	0
    Cl:	-0.0293043	-0.0285523	-0.000751987	0
    Cl(f):	-0.0144726	-0.0142762	-0.000196412	0
    Cl(r):	-0.0148317	-0.0142762	-0.000555575	0
    CmPitch:	0.000179581	-3.04376e-13	0.000179581	0
    CmRoll:	0.0146522	0.0142762	0.000375994	0
    CmYaw:	0.487767	0.452268	0.0354994	0
    Cs:	-1.78859e-20	-1.70489e-20	-8.37013e-22	0
    Cs(f):	0.487767	0.452268	0.0354994	0
    Cs(r):	-0.487767	-0.452268	-0.0354994	0

    writing force and moment coefficient files.

Time = 2.9

smoothSolver:  Solving for Ux, Initial residual = 0.00884919, Final residual = 5.67965e-13, No Iterations 23
smoothSolver:  Solving for Uy, Initial residual = 0.00982995, Final residual = 4.24262e-13, No Iterations 23
GAMG:  Solving for p, Initial residual = 0.0208373, Final residual = 9.33802e-13, No Iterations 39
time step continuity errors : sum local = 1.4667e-14, global = 5.96868e-16, cumulative = 1.47388e-14
smoothSolver:  Solving for epsilon, Initial residual = 0.00907444, Final residual = 5.66037e-13, No Iterations 22
bounding epsilon, min: -0.00380159 max: 0.90759 average: 0.00553173
smoothSolver:  Solving for k, Initial residual = 0.00928869, Final residual = 8.15439e-13, No Iterations 22
ExecutionTime = 13.68 s  ClockTime = 14 s

forceCoeffs forceCoeffs write:
    Coefficient	Total	Pressure	Viscous	Internal
    Cd:	0.991161	0.921029	0.0701322	0
    Cd(f):	0.510256	0.474811	0.0354444	0
    Cd(r):	0.480906	0.446218	0.0346878	0
    Cl:	-0.02935	-0.0285935	-0.000756556	0
    Cl(f):	-0.0145026	-0.0142967	-0.000205887	0
    Cl(r):	-0.0148474	-0.0142967	-0.000550669	0
    CmPitch:	0.000172391	-2.51034e-13	0.000172391	0
    CmRoll:	0.014675	0.0142967	0.000378278	0
    CmYaw:	0.495581	0.460515	0.0350661	0
    Cs:	-1.78811e-20	-1.71461e-20	-7.34971e-22	0
    Cs(f):	0.495581	0.460515	0.0350661	0
    Cs(r):	-0.495581	-0.460515	-0.0350661	0

    writing force and moment coefficient files.

Time = 3

smoothSolver:  Solving for Ux, Initial residual = 0.0086526, Final residual = 5.6973e-13, No Iterations 23
smoothSolver:  Solving for Uy, Initial residual = 0.00972846, Final residual = 4.24238e-13, No Iterations 23
GAMG:  Solving for p, Initial residual = 0.0209271, Final residual = 8.77432e-13, No Iterations 39
time step continuity errors : sum local = 1.3676e-14, global = 5.52692e-16, cumulative = 1.52915e-14
smoothSolver:  Solving for epsilon, Initial residual = 0.00831504, Final residual = 5.6931e-13, No Iterations 22
bounding epsilon, min: -0.00215541 max: 0.906808 average: 0.00560937
smoothSolver:  Solving for k, Initial residual = 0.00898753, Final residual = 7.94115e-13, No Iterations 22
bounding k, min: -0.0027912 max: 0.422308 average: 0.0108667
ExecutionTime = 14.1 s  ClockTime = 15 s

forceCoeffs forceCoeffs write:
    Coefficient	Total	Pressure	Viscous	Internal
    Cd:	1.00689	0.937552	0.0693354	0
    Cd(f):	0.517941	0.482893	0.0350478	0
    Cd(r):	0.488947	0.454659	0.0342876	0
    Cl:	-0.0289945	-0.0282343	-0.000760185	0
    Cl(f):	-0.0143329	-0.0141171	-0.000215803	0
    Cl(r):	-0.0146615	-0.0141171	-0.000544382	0
    CmPitch:	0.00016429	-2.30915e-13	0.00016429	0
    CmRoll:	0.0144972	0.0141171	0.000380093	0
    CmYaw:	0.503444	0.468776	0.0346677	0
    Cs:	-1.77785e-20	-1.71745e-20	-6.03963e-22	0
    Cs(f):	0.503444	0.468776	0.0346677	0
    Cs(r):	-0.503444	-0.468776	-0.0346677	0

    writing force and moment coefficient files.

Time = 3.1

smoothSolver:  Solving for Ux, Initial residual = 0.00848024, Final residual = 5.72143e-13, No Iterations 23
smoothSolver:  Solving for Uy, Initial residual = 0.00959509, Final residual = 4.24047e-13, No Iterations 23
GAMG:  Solving for p, Initial residual = 0.0206068, Final residual = 6.68875e-13, No Iterations 39
time step continuity errors : sum local = 1.03228e-14, global = 4.3791e-16, cumulative = 1.57294e-14
smoothSolver:  Solving for epsilon, Initial residual = 0.00790731, Final residual = 5.69212e-13, No Iterations 22
bounding epsilon, min: -0.00227913 max: 0.904507 average: 0.00568667
smoothSolver:  Solving for k, Initial residual = 0.00871895, Final residual = 7.81341e-13, No Iterations 22
bounding k, min: -0.000825431 max: 0.418854 average: 0.0109748
ExecutionTime = 14.51 s  ClockTime = 15 s

forceCoeffs forceCoeffs write:
    Coefficient	Total	Pressure	Viscous	Internal
    Cd:	1.02218	0.953575	0.0686034	0
    Cd(f):	0.525543	0.490859	0.0346839	0
    Cd(r):	0.496635	0.462716	0.0339195	0
    Cl:	-0.028908	-0.0281436	-0.000764356	0
    Cl(f):	-0.0142975	-0.0140718	-0.000225742	0
    Cl(r):	-0.0146104	-0.0140718	-0.000538614	0
    CmPitch:	0.000156436	-2.25177e-13	0.000156436	0
    CmRoll:	0.014454	0.0140718	0.000382178	0
    CmYaw:	0.511089	0.476787	0.0343017	0
    Cs:	-1.76194e-20	-1.7183e-20	-4.36422e-22	0
    Cs(f):	0.511089	0.476787	0.0343017	0
    Cs(r):	-0.511089	-0.476787	-0.0343017	0

    writing force and moment coefficient files.

Time = 3.2

smoothSolver:  Solving for Ux, Initial residual = 0.00830228, Final residual = 5.74336e-13, No Iterations 23
smoothSolver:  Solving for Uy, Initial residual = 0.00946821, Final residual = 4.2406e-13, No Iterations 23
GAMG:  Solving for p, Initial residual = 0.0203333, Final residual = 8.91506e-13, No Iterations 38
time step continuity errors : sum local = 1.36057e-14, global = 5.8932e-16, cumulative = 1.63187e-14
smoothSolver:  Solving for epsilon, Initial residual = 0.00779927, Final residual = 5.66783e-13, No Iterations 22
bounding epsilon, min: -0.00157564 max: 0.901354 average: 0.00576232
smoothSolver:  Solving for k, Initial residual = 0.00844794, Final residual = 7.61562e-13, No Iterations 22
bounding k, min: -0.00121928 max: 0.415461 average: 0.0110816
ExecutionTime = 14.93 s  ClockTime = 15 s

forceCoeffs forceCoeffs write:
    Coefficient	Total	Pressure	Viscous	Internal
    Cd:	1.0373	0.969373	0.0679295	0
    Cd(f):	0.532958	0.498609	0.0343493	0
    Cd(r):	0.504345	0.470764	0.0335802	0
    Cl:	-0.0286135	-0.0278444	-0.000769081	0
    Cl(f):	-0.0141576	-0.0139222	-0.00023542	0
    Cl(r):	-0.0144559	-0.0139222	-0.00053366	0
    CmPitch:	0.00014912	-2.19221e-13	0.00014912	0
    CmRoll:	0.0143067	0.0139222	0.00038454	0
    CmYaw:	0.518651	0.484687	0.0339648	0
    Cs:	-1.74738e-20	-1.71791e-20	-2.94712e-22	0
    Cs(f):	0.518651	0.484687	0.0339648	0
    Cs(r):	-0.518651	-0.484687	-0.0339648	0

    writing force and moment coefficient files.

Time = 3.3

smoothSolver:  Solving for Ux, Initial residual = 0.00814803, Final residual = 5.76853e-13, No Iterations 23
smoothSolver:  Solving for Uy, Initial residual = 0.00935224, Final residual = 4.24541e-13, No Iterations 23
GAMG:  Solving for p, Initial residual = 0.02014, Final residual = 6.544e-13, No Iterations 38
time step continuity errors : sum local = 9.92312e-15, global = 4.35168e-16, cumulative = 1.67539e-14
smoothSolver:  Solving for epsilon, Initial residual = 0.00747566, Final residual = 5.65046e-13, No Iterations 22
bounding epsilon, min: -0.00148668 max: 0.89763 average: 0.00583755
smoothSolver:  Solving for k, Initial residual = 0.00818543, Final residual = 7.33251e-13, No Iterations 22
bounding k, min: -0.00233197 max: 0.412133 average: 0.0111885
ExecutionTime = 15.34 s  ClockTime = 16 s

forceCoeffs forceCoeffs write:
    Coefficient	Total	Pressure	Viscous	Internal
    Cd:	1.05212	0.984808	0.0673112	0
    Cd(f):	0.540127	0.506084	0.0340424	0
    Cd(r):	0.511993	0.478724	0.0332688	0
    Cl:	-0.0281342	-0.0273605	-0.000773658	0
    Cl(f):	-0.0139251	-0.0136803	-0.000244799	0
    Cl(r):	-0.0142091	-0.0136803	-0.000528859	0
    CmPitch:	0.00014203	-2.32833e-13	0.00014203	0
    CmRoll:	0.0140671	0.0136803	0.000386829	0
    CmYaw:	0.52606	0.492404	0.0336556	0
    Cs:	-1.73087e-20	-1.716e-20	-1.48652e-22	0
    Cs(f):	0.52606	0.492404	0.0336556	0
    Cs(r):	-0.52606	-0.492404	-0.0336556	0

    writing force and moment coefficient files.

Time = 3.4

smoothSolver:  Solving for Ux, Initial residual = 0.00801808, Final residual = 5.78999e-13, No Iterations 23
smoothSolver:  Solving for Uy, Initial residual = 0.00927701, Final residual = 4.24465e-13, No Iterations 23
GAMG:  Solving for p, Initial residual = 0.0201436, Final residual = 6.83504e-13, No Iterations 38
time step continuity errors : sum local = 1.02418e-14, global = 5.18567e-16, cumulative = 1.72725e-14
smoothSolver:  Solving for epsilon, Initial residual = 0.00733544, Final residual = 5.60259e-13, No Iterations 22
bounding epsilon, min: -0.00145072 max: 0.89462 average: 0.00591184
smoothSolver:  Solving for k, Initial residual = 0.00794269, Final residual = 7.13574e-13, No Iterations 22
ExecutionTime = 15.75 s  ClockTime = 16 s

forceCoeffs forceCoeffs write:
    Coefficient	Total	Pressure	Viscous	Internal
    Cd:	1.06691	1.00017	0.0667462	0
    Cd(f):	0.54734	0.513578	0.0337627	0
    Cd(r):	0.519572	0.486589	0.0329835	0
    Cl:	-0.0277682	-0.026989	-0.000779187	0
    Cl(f):	-0.0137484	-0.0134945	-0.000253951	0
    Cl(r):	-0.0140197	-0.0134945	-0.000525236	0
    CmPitch:	0.000135642	-2.39136e-13	0.000135642	0
    CmRoll:	0.0138841	0.0134945	0.000389593	0
    CmYaw:	0.533456	0.500083	0.0333731	0
    Cs:	-1.71499e-20	-1.71415e-20	-8.39246e-24	0
    Cs(f):	0.533456	0.500083	0.0333731	0
    Cs(r):	-0.533456	-0.500083	-0.0333731	0

    writing force and moment coefficient files.

Time = 3.5

smoothSolver:  Solving for Ux, Initial residual = 0.00791901, Final residual = 5.81313e-13, No Iterations 23
smoothSolver:  Solving for Uy, Initial residual = 0.00929951, Final residual = 4.25189e-13, No Iterations 23
GAMG:  Solving for p, Initial residual = 0.0206386, Final residual = 6.00057e-13, No Iterations 38
time step continuity errors : sum local = 8.90599e-15, global = 5.30926e-16, cumulative = 1.78034e-14
smoothSolver:  Solving for epsilon, Initial residual = 0.00709628, Final residual = 5.56042e-13, No Iterations 22
bounding epsilon, min: -0.00275487 max: 0.891983 average: 0.0059872
smoothSolver:  Solving for k, Initial residual = 0.00774334, Final residual = 6.94609e-13, No Iterations 22
bounding k, min: -0.000850719 max: 0.405678 average: 0.0113998
ExecutionTime = 16.16 s  ClockTime = 17 s

forceCoeffs forceCoeffs write:
    Coefficient	Total	Pressure	Viscous	Internal
    Cd:	1.08122	1.01498	0.0662348	0
    Cd(f):	0.554369	0.520857	0.0335113	0
    Cd(r):	0.526849	0.494126	0.0327235	0
    Cl:	-0.0275195	-0.0267317	-0.000787815	0
    Cl(f):	-0.013629	-0.0133659	-0.000263123	0
    Cl(r):	-0.0138906	-0.0133659	-0.000524691	0
    CmPitch:	0.000130784	-2.36262e-13	0.000130784	0
    CmRoll:	0.0137598	0.0133659	0.000393907	0
    CmYaw:	0.540609	0.507491	0.0331174	0
    Cs:	-1.69806e-20	-1.71153e-20	1.34684e-22	0
    Cs(f):	0.540609	0.507491	0.0331174	0
    Cs(r):	-0.540609	-0.507491	-0.0331174	0

    writing force and moment coefficient files.

Time = 3.6

smoothSolver:  Solving for Ux, Initial residual = 0.0077658, Final residual = 5.83287e-13, No Iterations 23
smoothSolver:  Solving for Uy, Initial residual = 0.00916211, Final residual = 4.26099e-13, No Iterations 23
GAMG:  Solving for p, Initial residual = 0.0197444, Final residual = 7.24353e-13, No Iterations 38
time step continuity errors : sum local = 1.06954e-14, global = 5.67417e-16, cumulative = 1.83708e-14
smoothSolver:  Solving for epsilon, Initial residual = 0.00687955, Final residual = 5.49669e-13, No Iterations 22
bounding epsilon, min: -0.00184527 max: 0.886415 average: 0.00606074
smoothSolver:  Solving for k, Initial residual = 0.00748446, Final residual = 6.71899e-13, No Iterations 22
ExecutionTime = 16.57 s  ClockTime = 17 s

forceCoeffs forceCoeffs write:
    Coefficient	Total	Pressure	Viscous	Internal
    Cd:	1.0957	1.02992	0.065775	0
    Cd(f):	0.561831	0.528543	0.0332884	0
    Cd(r):	0.533866	0.501379	0.0324866	0
    Cl:	-0.0279651	-0.0271634	-0.000801765	0
    Cl(f):	-0.0138544	-0.0135817	-0.000272677	0
    Cl(r):	-0.0141108	-0.0135817	-0.000529089	0
    CmPitch:	0.000128206	-2.10472e-13	0.000128206	0
    CmRoll:	0.0139826	0.0135817	0.000400883	0
    CmYaw:	0.547848	0.514961	0.0328875	0
    Cs:	-1.68494e-20	-1.71071e-20	2.57755e-22	0
    Cs(f):	0.547848	0.514961	0.0328875	0
    Cs(r):	-0.547848	-0.514961	-0.0328875	0

    writing force and moment coefficient files.

Time = 3.7

smoothSolver:  Solving for Ux, Initial residual = 0.00759816, Final residual = 5.85108e-13, No Iterations 23
smoothSolver:  Solving for Uy, Initial residual = 0.00896881, Final residual = 4.26177e-13, No Iterations 23
GAMG:  Solving for p, Initial residual = 0.0192415, Final residual = 8.35107e-13, No Iterations 38
time step continuity errors : sum local = 1.22254e-14, global = 6.10491e-16, cumulative = 1.89813e-14
smoothSolver:  Solving for epsilon, Initial residual = 0.0066356, Final residual = 5.43224e-13, No Iterations 22
bounding epsilon, min: -0.0019597 max: 0.885118 average: 0.0061346
smoothSolver:  Solving for k, Initial residual = 0.00727468, Final residual = 6.53096e-13, No Iterations 22
bounding k, min: -0.00079212 max: 0.399499 average: 0.0116097
ExecutionTime = 16.98 s  ClockTime = 17 s

forceCoeffs forceCoeffs write:
    Coefficient	Total	Pressure	Viscous	Internal
    Cd:	1.10968	1.04431	0.0653627	0
    Cd(f):	0.568691	0.535601	0.0330906	0
    Cd(r):	0.540985	0.508713	0.0322721	0
    Cl:	-0.0277067	-0.0268882	-0.000818497	0
    Cl(f):	-0.0137258	-0.0134441	-0.000281765	0
    Cl(r):	-0.0139808	-0.0134441	-0.000536732	0
    CmPitch:	0.000127484	-1.99618e-13	0.000127484	0
    CmRoll:	0.0138533	0.0134441	0.000409248	0
    CmYaw:	0.554838	0.522157	0.0326814	0
    Cs:	-1.67292e-20	-1.70767e-20	3.47543e-22	0
    Cs(f):	0.554838	0.522157	0.0326814	0
    Cs(r):	-0.554838	-0.522157	-0.0326814	0

    writing force and moment coefficient files.

Time = 3.8

smoothSolver:  Solving for Ux, Initial residual = 0.00748351, Final residual = 5.86744e-13, No Iterations 23
smoothSolver:  Solving for Uy, Initial residual = 0.00892263, Final residual = 4.2593e-13, No Iterations 23
GAMG:  Solving for p, Initial residual = 0.0191907, Final residual = 9.7358e-13, No Iterations 37
time step continuity errors : sum local = 1.41184e-14, global = -1.05691e-17, cumulative = 1.89707e-14
smoothSolver:  Solving for epsilon, Initial residual = 0.00652678, Final residual = 5.36257e-13, No Iterations 22
bounding epsilon, min: -0.00193061 max: 0.882662 average: 0.0062078
smoothSolver:  Solving for k, Initial residual = 0.0070769, Final residual = 6.34698e-13, No Iterations 22
ExecutionTime = 17.37 s  ClockTime = 18 s

forceCoeffs forceCoeffs write:
    Coefficient	Total	Pressure	Viscous	Internal
    Cd:	1.12263	1.05764	0.0649939	0
    Cd(f):	0.575076	0.54216	0.0329158	0
    Cd(r):	0.547559	0.515481	0.0320781	0
    Cl:	-0.0275177	-0.02668	-0.000837764	0
    Cl(f):	-0.0136301	-0.01334	-0.000290124	0
    Cl(r):	-0.0138876	-0.01334	-0.00054764	0
    CmPitch:	0.000128758	-2.00218e-13	0.000128758	0
    CmRoll:	0.0137589	0.01334	0.000418882	0
    CmYaw:	0.561317	0.528821	0.032497	0
    Cs:	-1.65982e-20	-1.70349e-20	4.36704e-22	0
    Cs(f):	0.561317	0.528821	0.032497	0
    Cs(r):	-0.561317	-0.528821	-0.032497	0

    writing force and moment coefficient files.

Time = 3.9

smoothSolver:  Solving for Ux, Initial residual = 0.00734259, Final residual = 5.87937e-13, No Iterations 23
smoothSolver:  Solving for Uy, Initial residual = 0.00880098, Final residual = 4.27462e-13, No Iterations 23
GAMG:  Solving for p, Initial residual = 0.0187447, Final residual = 6.5652e-13, No Iterations 38
time step continuity errors : sum local = 9.45422e-15, global = 5.20524e-16, cumulative = 1.94912e-14
smoothSolver:  Solving for epsilon, Initial residual = 0.00626656, Final residual = 5.30751e-13, No Iterations 22
bounding epsilon, min: -0.00190956 max: 0.891246 average: 0.00628023
smoothSolver:  Solving for k, Initial residual = 0.00692065, Final residual = 6.24399e-13, No Iterations 22
ExecutionTime = 17.79 s  ClockTime = 18 s

forceCoeffs forceCoeffs write:
    Coefficient	Total	Pressure	Viscous	Internal
    Cd:	1.13547	1.0708	0.064665	0
    Cd(f):	0.581338	0.548575	0.0327624	0
    Cd(r):	0.554129	0.522226	0.0319027	0
    Cl:	-0.0272092	-0.0263495	-0.000859691	0
    Cl(f):	-0.0134725	-0.0131747	-0.000297784	0
    Cl(r):	-0.0137366	-0.0131747	-0.000561907	0
    CmPitch:	0.000132062	-2.36414e-13	0.000132062	0
    CmRoll:	0.0136046	0.0131747	0.000429845	0
    CmYaw:	0.567733	0.535401	0.0323325	0
    Cs:	-1.64795e-20	-1.6988e-20	5.08514e-22	0
    Cs(f):	0.567733	0.535401	0.0323325	0
    Cs(r):	-0.567733	-0.535401	-0.0323325	0

    writing force and moment coefficient files.

Time = 4

smoothSolver:  Solving for Ux, Initial residual = 0.00722301, Final residual = 5.88671e-13, No Iterations 23
smoothSolver:  Solving for Uy, Initial residual = 0.00868735, Final residual = 4.28498e-13, No Iterations 23
GAMG:  Solving for p, Initial residual = 0.01851, Final residual = 5.16754e-13, No Iterations 38
time step continuity errors : sum local = 7.38579e-15, global = 4.72108e-16, cumulative = 1.99634e-14
smoothSolver:  Solving for epsilon, Initial residual = 0.00611764, Final residual = 5.23861e-13, No Iterations 22
bounding epsilon, min: -0.00184168 max: 0.904605 average: 0.00635198
smoothSolver:  Solving for k, Initial residual = 0.00672616, Final residual = 6.11432e-13, No Iterations 22
bounding k, min: -0.000284772 max: 0.390746 average: 0.0119221
ExecutionTime = 18.2 s  ClockTime = 19 s

forceCoeffs forceCoeffs write:
    Coefficient	Total	Pressure	Viscous	Internal
    Cd:	1.14685	1.08248	0.0643678	0
    Cd(f):	0.586714	0.554088	0.0326251	0
    Cd(r):	0.560132	0.528389	0.0317427	0
    Cl:	-0.0265817	-0.0256993	-0.000882444	0
    Cl(f):	-0.0131538	-0.0128496	-0.000304207	0
    Cl(r):	-0.0134279	-0.0128496	-0.000578237	0
    CmPitch:	0.000137015	-2.79768e-13	0.000137015	0
    CmRoll:	0.0132909	0.0128496	0.000441222	0
    CmYaw:	0.573423	0.541239	0.0321839	0
    Cs:	-1.63415e-20	-1.69258e-20	5.8425e-22	0
    Cs(f):	0.573423	0.541239	0.0321839	0
    Cs(r):	-0.573423	-0.541239	-0.0321839	0

    writing force and moment coefficient files.

Time = 4.1

smoothSolver:  Solving for Ux, Initial residual = 0.00737779, Final residual = 5.89733e-13, No Iterations 23
smoothSolver:  Solving for Uy, Initial residual = 0.00881196, Final residual = 4.31814e-13, No Iterations 23
GAMG:  Solving for p, Initial residual = 0.0188533, Final residual = 5.63407e-13, No Iterations 38
time step continuity errors : sum local = 7.93475e-15, global = 4.65972e-16, cumulative = 2.04293e-14
smoothSolver:  Solving for epsilon, Initial residual = 0.00611378, Final residual = 5.15853e-13, No Iterations 22
bounding epsilon, min: -0.00182558 max: 0.915871 average: 0.00642351
smoothSolver:  Solving for k, Initial residual = 0.00665896, Final residual = 6.02568e-13, No Iterations 22
bounding k, min: -6.94591e-05 max: 0.387963 average: 0.0120251
ExecutionTime = 18.61 s  ClockTime = 19 s

forceCoeffs forceCoeffs write:
    Coefficient	Total	Pressure	Viscous	Internal
    Cd:	1.15792	1.09382	0.064097	0
    Cd(f):	0.591746	0.559244	0.0325013	0
    Cd(r):	0.566176	0.53458	0.0315957	0
    Cl:	-0.02557	-0.0246644	-0.000905644	0
    Cl(f):	-0.0126416	-0.0123322	-0.000309382	0
    Cl(r):	-0.0129285	-0.0123322	-0.000596262	0
    CmPitch:	0.00014344	-3.32251e-13	0.00014344	0
    CmRoll:	0.012785	0.0123322	0.000452822	0
    CmYaw:	0.578961	0.546912	0.0320485	0
    Cs:	-1.61978e-20	-1.68562e-20	6.58465e-22	0
    Cs(f):	0.578961	0.546912	0.0320485	0
    Cs(r):	-0.578961	-0.546912	-0.0320485	0

    writing force and moment coefficient files.

Time = 4.2

smoothSolver:  Solving for Ux, Initial residual = 0.007025, Final residual = 5.88185e-13, No Iterations 23
smoothSolver:  Solving for Uy, Initial residual = 0.00857459, Final residual = 4.31383e-13, No Iterations 23
GAMG:  Solving for p, Initial residual = 0.0185285, Final residual = 7.19783e-13, No Iterations 38
time step continuity errors : sum local = 1.01551e-14, global = 5.02281e-16, cumulative = 2.09316e-14
smoothSolver:  Solving for epsilon, Initial residual = 0.00580753, Final residual = 5.09502e-13, No Iterations 22
bounding epsilon, min: -0.0018051 max: 0.924522 average: 0.00649351
smoothSolver:  Solving for k, Initial residual = 0.00642568, Final residual = 5.90048e-13, No Iterations 22
bounding k, min: -0.000299866 max: 0.385246 average: 0.012128
ExecutionTime = 19.01 s  ClockTime = 20 s

forceCoeffs forceCoeffs write:
    Coefficient	Total	Pressure	Viscous	Internal
    Cd:	1.16888	1.10503	0.0638486	0
    Cd(f):	0.597157	0.564767	0.0323896	0
    Cd(r):	0.571724	0.540265	0.031459	0
    Cl:	-0.0254329	-0.0245023	-0.000930631	0
    Cl(f):	-0.0125645	-0.0122512	-0.000313367	0
    Cl(r):	-0.0128684	-0.0122512	-0.000617264	0
    CmPitch:	0.000151948	-3.6513e-13	0.000151948	0
    CmRoll:	0.0127165	0.0122512	0.000465315	0
    CmYaw:	0.58444	0.552516	0.0319243	0
    Cs:	-1.60974e-20	-1.68308e-20	7.33449e-22	0
    Cs(f):	0.58444	0.552516	0.0319243	0
    Cs(r):	-0.58444	-0.552516	-0.0319243	0

    writing force and moment coefficient files.

Time = 4.3

smoothSolver:  Solving for Ux, Initial residual = 0.0069453, Final residual = 5.86924e-13, No Iterations 23
smoothSolver:  Solving for Uy, Initial residual = 0.0084476, Final residual = 4.33582e-13, No Iterations 23
GAMG:  Solving for p, Initial residual = 0.0183258, Final residual = 5.99039e-13, No Iterations 38
time step continuity errors : sum local = 8.38603e-15, global = 4.45686e-16, cumulative = 2.13773e-14
smoothSolver:  Solving for epsilon, Initial residual = 0.00571624, Final residual = 5.04174e-13, No Iterations 22
bounding epsilon, min: -0.00180204 max: 0.935771 average: 0.00656223
smoothSolver:  Solving for k, Initial residual = 0.00629102, Final residual = 5.8292e-13, No Iterations 22
ExecutionTime = 19.42 s  ClockTime = 20 s

forceCoeffs forceCoeffs write:
    Coefficient	Total	Pressure	Viscous	Internal
    Cd:	1.17885	1.11524	0.0636167	0
    Cd(f):	0.601888	0.569602	0.0322864	0
    Cd(r):	0.576967	0.545636	0.0313303	0
    Cl:	-0.0249219	-0.0239658	-0.000956141	0
    Cl(f):	-0.0122994	-0.0119829	-0.000316522	0
    Cl(r):	-0.0126225	-0.0119829	-0.000639619	0
    CmPitch:	0.000161548	-3.90925e-13	0.000161548	0
    CmRoll:	0.012461	0.0119829	0.00047807	0
    CmYaw:	0.589427	0.557619	0.0318083	0
    Cs:	-1.59771e-20	-1.67914e-20	8.14288e-22	0
    Cs(f):	0.589427	0.557619	0.0318083	0
    Cs(r):	-0.589427	-0.557619	-0.0318083	0

    writing force and moment coefficient files.

Time = 4.4

smoothSolver:  Solving for Ux, Initial residual = 0.00680648, Final residual = 5.85453e-13, No Iterations 23
smoothSolver:  Solving for Uy, Initial residual = 0.00835772, Final residual = 4.35511e-13, No Iterations 23
GAMG:  Solving for p, Initial residual = 0.0179087, Final residual = 5.94473e-13, No Iterations 38
time step continuity errors : sum local = 8.29078e-15, global = 4.19029e-16, cumulative = 2.17963e-14
smoothSolver:  Solving for epsilon, Initial residual = 0.00555214, Final residual = 4.9786e-13, No Iterations 22
bounding epsilon, min: -0.00179173 max: 0.945736 average: 0.00662893
smoothSolver:  Solving for k, Initial residual = 0.00615455, Final residual = 5.73007e-13, No Iterations 22
ExecutionTime = 19.83 s  ClockTime = 20 s

forceCoeffs forceCoeffs write:
    Coefficient	Total	Pressure	Viscous	Internal
    Cd:	1.18831	1.12491	0.0633986	0
    Cd(f):	0.606141	0.573951	0.0321897	0
    Cd(r):	0.582168	0.550959	0.0312089	0
    Cl:	-0.0239727	-0.022992	-0.000980791	0
    Cl(f):	-0.0118145	-0.011496	-0.00031855	0
    Cl(r):	-0.0121582	-0.011496	-0.000662241	0
    CmPitch:	0.000171845	-4.32757e-13	0.000171845	0
    CmRoll:	0.0119864	0.011496	0.000490395	0
    CmYaw:	0.594154	0.562455	0.0316993	0
    Cs:	-1.58624e-20	-1.67493e-20	8.86901e-22	0
    Cs(f):	0.594154	0.562455	0.0316993	0
    Cs(r):	-0.594154	-0.562455	-0.0316993	0

    writing force and moment coefficient files.

Time = 4.5

smoothSolver:  Solving for Ux, Initial residual = 0.00670579, Final residual = 5.82999e-13, No Iterations 23
smoothSolver:  Solving for Uy, Initial residual = 0.00827931, Final residual = 4.36736e-13, No Iterations 23
GAMG:  Solving for p, Initial residual = 0.0177323, Final residual = 5.72503e-13, No Iterations 38
time step continuity errors : sum local = 7.94213e-15, global = 3.86121e-16, cumulative = 2.21824e-14
smoothSolver:  Solving for epsilon, Initial residual = 0.00540788, Final residual = 4.91722e-13, No Iterations 22
bounding epsilon, min: -0.00181444 max: 0.952772 average: 0.00669397
smoothSolver:  Solving for k, Initial residual = 0.00602085, Final residual = 5.66402e-13, No Iterations 22
ExecutionTime = 20.25 s  ClockTime = 21 s

forceCoeffs forceCoeffs write:
    Coefficient	Total	Pressure	Viscous	Internal
    Cd:	1.19741	1.13422	0.0631931	0
    Cd(f):	0.610476	0.578376	0.0320996	0
    Cd(r):	0.586938	0.555844	0.0310936	0
    Cl:	-0.0235381	-0.0225321	-0.00100599	0
    Cl(f):	-0.0115864	-0.0112661	-0.000320297	0
    Cl(r):	-0.0119518	-0.0112661	-0.000685695	0
    CmPitch:	0.000182699	-4.92954e-13	0.000182699	0
    CmRoll:	0.0117691	0.0112661	0.000502996	0
    CmYaw:	0.598707	0.56711	0.0315966	0
    Cs:	-1.57695e-20	-1.67267e-20	9.57196e-22	0
    Cs(f):	0.598707	0.56711	0.0315966	0
    Cs(r):	-0.598707	-0.56711	-0.0315966	0

    writing force and moment coefficient files.

Time = 4.6

smoothSolver:  Solving for Ux, Initial residual = 0.00661311, Final residual = 5.80181e-13, No Iterations 23
smoothSolver:  Solving for Uy, Initial residual = 0.00817317, Final residual = 4.385e-13, No Iterations 23
GAMG:  Solving for p, Initial residual = 0.0168956, Final residual = 6.04315e-13, No Iterations 38
time step continuity errors : sum local = 8.31864e-15, global = 3.62366e-16, cumulative = 2.25448e-14
smoothSolver:  Solving for epsilon, Initial residual = 0.00532911, Final residual = 4.87433e-13, No Iterations 22
bounding epsilon, min: -0.00180072 max: 0.957706 average: 0.00675707
smoothSolver:  Solving for k, Initial residual = 0.00588872, Final residual = 5.59762e-13, No Iterations 22
ExecutionTime = 20.71 s  ClockTime = 21 s

forceCoeffs forceCoeffs write:
    Coefficient	Total	Pressure	Viscous	Internal
    Cd:	1.20578	1.14278	0.0629986	0
    Cd(f):	0.614493	0.582478	0.0320148	0
    Cd(r):	0.591282	0.560298	0.0309838	0
    Cl:	-0.0232109	-0.0221799	-0.00103099	0
    Cl(f):	-0.0114114	-0.01109	-0.000321394	0
    Cl(r):	-0.0117996	-0.01109	-0.000709597	0
    CmPitch:	0.000194101	-5.44608e-13	0.000194101	0
    CmRoll:	0.0116055	0.01109	0.000515495	0
    CmYaw:	0.602888	0.571388	0.0314993	0
    Cs:	-1.56935e-20	-1.67103e-20	1.01672e-21	0
    Cs(f):	0.602888	0.571388	0.0314993	0
    Cs(r):	-0.602888	-0.571388	-0.0314993	0

    writing force and moment coefficient files.

Time = 4.7

smoothSolver:  Solving for Ux, Initial residual = 0.00650354, Final residual = 5.76749e-13, No Iterations 23
smoothSolver:  Solving for Uy, Initial residual = 0.00808671, Final residual = 4.39416e-13, No Iterations 23
GAMG:  Solving for p, Initial residual = 0.0166844, Final residual = 9.13761e-13, No Iterations 37
time step continuity errors : sum local = 1.25295e-14, global = 5.29682e-16, cumulative = 2.30745e-14
smoothSolver:  Solving for epsilon, Initial residual = 0.00515454, Final residual = 4.81223e-13, No Iterations 22
bounding epsilon, min: -0.00182641 max: 0.962067 average: 0.00681975
smoothSolver:  Solving for k, Initial residual = 0.00577341, Final residual = 5.56325e-13, No Iterations 22
ExecutionTime = 21.16 s  ClockTime = 22 s

forceCoeffs forceCoeffs write:
    Coefficient	Total	Pressure	Viscous	Internal
    Cd:	1.21419	1.15137	0.0628143	0
    Cd(f):	0.618362	0.586428	0.0319345	0
    Cd(r):	0.595824	0.564944	0.0308798	0
    Cl:	-0.0225382	-0.0214836	-0.00105467	0
    Cl(f):	-0.0110636	-0.0107418	-0.000321769	0
    Cl(r):	-0.0114747	-0.0107418	-0.000732903	0
    CmPitch:	0.000205567	-5.88836e-13	0.000205567	0
    CmRoll:	0.0112691	0.0107418	0.000527336	0
    CmYaw:	0.607093	0.575686	0.0314072	0
    Cs:	-1.56149e-20	-1.66966e-20	1.08169e-21	0
    Cs(f):	0.607093	0.575686	0.0314072	0
    Cs(r):	-0.607093	-0.575686	-0.0314072	0

    writing force and moment coefficient files.

Time = 4.8

smoothSolver:  Solving for Ux, Initial residual = 0.0064103, Final residual = 5.72972e-13, No Iterations 23
smoothSolver:  Solving for Uy, Initial residual = 0.0080048, Final residual = 4.40627e-13, No Iterations 23
GAMG:  Solving for p, Initial residual = 0.016235, Final residual = 8.5887e-13, No Iterations 37
time step continuity errors : sum local = 1.17054e-14, global = 5.4215e-16, cumulative = 2.36166e-14
smoothSolver:  Solving for epsilon, Initial residual = 0.00508415, Final residual = 4.76309e-13, No Iterations 22
bounding epsilon, min: -0.00180752 max: 0.982284 average: 0.00688076
smoothSolver:  Solving for k, Initial residual = 0.00566132, Final residual = 5.50012e-13, No Iterations 22
ExecutionTime = 21.59 s  ClockTime = 22 s

forceCoeffs forceCoeffs write:
    Coefficient	Total	Pressure	Viscous	Internal
    Cd:	1.22211	1.15947	0.0626393	0
    Cd(f):	0.622055	0.590196	0.0318587	0
    Cd(r):	0.600056	0.569275	0.0307806	0
    Cl:	-0.0219992	-0.0209212	-0.00107809	0
    Cl(f):	-0.0107829	-0.0104606	-0.000322328	0
    Cl(r):	-0.0112163	-0.0104606	-0.00075576	0
    CmPitch:	0.000216716	-6.28773e-13	0.000216716	0
    CmRoll:	0.0109996	0.0104606	0.000539044	0
    CmYaw:	0.611055	0.579736	0.0313197	0
    Cs:	-1.5531e-20	-1.6684e-20	1.15301e-21	0
    Cs(f):	0.611055	0.579736	0.0313197	0
    Cs(r):	-0.611055	-0.579736	-0.0313197	0

    writing force and moment coefficient files.

Time = 4.9

smoothSolver:  Solving for Ux, Initial residual = 0.00632207, Final residual = 5.68751e-13, No Iterations 23
smoothSolver:  Solving for Uy, Initial residual = 0.00792669, Final residual = 4.4182e-13, No Iterations 23
GAMG:  Solving for p, Initial residual = 0.0159696, Final residual = 7.22404e-13, No Iterations 37
time step continuity errors : sum local = 9.79938e-15, global = 4.84963e-16, cumulative = 2.41016e-14
smoothSolver:  Solving for epsilon, Initial residual = 0.00498795, Final residual = 4.70869e-13, No Iterations 22
bounding epsilon, min: -0.00182864 max: 1.00656 average: 0.00694021
smoothSolver:  Solving for k, Initial residual = 0.00555502, Final residual = 5.45485e-13, No Iterations 22
bounding k, min: -7.90849e-05 max: 0.367949 average: 0.0128333
ExecutionTime = 22 s  ClockTime = 22 s

forceCoeffs forceCoeffs write:
    Coefficient	Total	Pressure	Viscous	Internal
    Cd:	1.22982	1.16735	0.0624737	0
    Cd(f):	0.625783	0.593996	0.0317876	0
    Cd(r):	0.604037	0.573351	0.0306861	0
    Cl:	-0.0217458	-0.0206444	-0.00110142	0
    Cl(f):	-0.0106455	-0.0103222	-0.000323297	0
    Cl(r):	-0.0111003	-0.0103222	-0.000778124	0
    CmPitch:	0.000227413	-6.65096e-13	0.000227413	0
    CmRoll:	0.0108729	0.0103222	0.00055071	0
    CmYaw:	0.61491	0.583673	0.0312368	0
    Cs:	-1.54655e-20	-1.66848e-20	1.21935e-21	0
    Cs(f):	0.61491	0.583673	0.0312368	0
    Cs(r):	-0.61491	-0.583673	-0.0312368	0

    writing force and moment coefficient files.

Time = 5

smoothSolver:  Solving for Ux, Initial residual = 0.00622814, Final residual = 5.64585e-13, No Iterations 23
smoothSolver:  Solving for Uy, Initial residual = 0.00784949, Final residual = 4.43314e-13, No Iterations 23
GAMG:  Solving for p, Initial residual = 0.0156549, Final residual = 6.40182e-13, No Iterations 37
time step continuity errors : sum local = 8.63774e-15, global = 4.39802e-16, cumulative = 2.45414e-14
smoothSolver:  Solving for epsilon, Initial residual = 0.00483491, Final residual = 4.63417e-13, No Iterations 22
bounding epsilon, min: -0.00180672 max: 1.03025 average: 0.0069991
smoothSolver:  Solving for k, Initial residual = 0.00544792, Final residual = 5.40043e-13, No Iterations 22
ExecutionTime = 22.67 s  ClockTime = 23 s

forceCoeffs forceCoeffs write:
    Coefficient	Total	Pressure	Viscous	Internal
    Cd:	1.23736	1.17505	0.0623173	0
    Cd(f):	0.629483	0.597763	0.0317206	0
    Cd(r):	0.607881	0.577285	0.0305967	0
    Cl:	-0.021602	-0.0204781	-0.00112391	0
    Cl(f):	-0.0105631	-0.010239	-0.00032403	0
    Cl(r):	-0.0110389	-0.010239	-0.000799883	0
    CmPitch:	0.000237926	-7.01373e-13	0.000237926	0
    CmRoll:	0.010801	0.010239	0.000561957	0
    CmYaw:	0.618682	0.587524	0.0311586	0
    Cs:	-1.54149e-20	-1.66917e-20	1.2768e-21	0
    Cs(f):	0.618682	0.587524	0.0311586	0
    Cs(r):	-0.618682	-0.587524	-0.0311586	0

    writing force and moment coefficient files.

streamLine streamlines write:
    seeded 0 particles
    Tracks:0
    Total samples:0
Time = 5.1

smoothSolver:  Solving for Ux, Initial residual = 0.00613574, Final residual = 5.60272e-13, No Iterations 23
smoothSolver:  Solving for Uy, Initial residual = 0.0077471, Final residual = 4.45117e-13, No Iterations 23
GAMG:  Solving for p, Initial residual = 0.0154314, Final residual = 5.83431e-13, No Iterations 37
time step continuity errors : sum local = 7.8437e-15, global = 4.14128e-16, cumulative = 2.49555e-14
smoothSolver:  Solving for epsilon, Initial residual = 0.00473458, Final residual = 4.58375e-13, No Iterations 22
bounding epsilon, min: -0.00182666 max: 1.05335 average: 0.00705671
smoothSolver:  Solving for k, Initial residual = 0.00534085, Final residual = 5.3626e-13, No Iterations 22
ExecutionTime = 24.43 s  ClockTime = 25 s

forceCoeffs forceCoeffs write:
    Coefficient	Total	Pressure	Viscous	Internal
    Cd:	1.24459	1.18242	0.0621695	0
    Cd(f):	0.632968	0.601311	0.0316574	0
    Cd(r):	0.61162	0.581108	0.0305121	0
    Cl:	-0.0213477	-0.0202024	-0.00114533	0
    Cl(f):	-0.0104255	-0.0101012	-0.000324323	0
    Cl(r):	-0.0109222	-0.0101012	-0.000821009	0
    CmPitch:	0.000248343	-7.52028e-13	0.000248343	0
    CmRoll:	0.0106738	0.0101012	0.000572666	0
    CmYaw:	0.622294	0.591209	0.0310848	0
    Cs:	-1.53543e-20	-1.66933e-20	1.339e-21	0
    Cs(f):	0.622294	0.591209	0.0310848	0
    Cs(r):	-0.622294	-0.591209	-0.0310848	0

    writing force and moment coefficient files.

Time = 5.2

smoothSolver:  Solving for Ux, Initial residual = 0.0060491, Final residual = 5.55793e-13, No Iterations 23
smoothSolver:  Solving for Uy, Initial residual = 0.00766572, Final residual = 4.47754e-13, No Iterations 23
GAMG:  Solving for p, Initial residual = 0.0151279, Final residual = 9.62131e-13, No Iterations 36
time step continuity errors : sum local = 1.28517e-14, global = 3.74263e-16, cumulative = 2.53298e-14
smoothSolver:  Solving for epsilon, Initial residual = 0.00459895, Final residual = 4.53558e-13, No Iterations 22
bounding epsilon, min: -0.00180471 max: 1.07587 average: 0.00711332
smoothSolver:  Solving for k, Initial residual = 0.00522781, Final residual = 5.33811e-13, No Iterations 22
ExecutionTime = 24.83 s  ClockTime = 25 s

forceCoeffs forceCoeffs write:
    Coefficient	Total	Pressure	Viscous	Internal
    Cd:	1.25157	1.18954	0.0620304	0
    Cd(f):	0.636373	0.604775	0.0315978	0
    Cd(r):	0.615197	0.584764	0.0304326	0
    Cl:	-0.0211763	-0.0200112	-0.00116514	0
    Cl(f):	-0.0103303	-0.0100056	-0.000324673	0
    Cl(r):	-0.0108461	-0.0100056	-0.000840465	0
    CmPitch:	0.000257896	-8.09774e-13	0.000257896	0
    CmRoll:	0.0105882	0.0100056	0.000582569	0
    CmYaw:	0.625785	0.59477	0.0310152	0
    Cs:	-1.52923e-20	-1.66983e-20	1.40603e-21	0
    Cs(f):	0.625785	0.59477	0.0310152	0
    Cs(r):	-0.625785	-0.59477	-0.0310152	0

    writing force and moment coefficient files.

Time = 5.3

smoothSolver:  Solving for Ux, Initial residual = 0.00596521, Final residual = 5.51449e-13, No Iterations 23
smoothSolver:  Solving for Uy, Initial residual = 0.00758792, Final residual = 4.50349e-13, No Iterations 23
GAMG:  Solving for p, Initial residual = 0.0147519, Final residual = 8.7019e-13, No Iterations 36
time step continuity errors : sum local = 1.15782e-14, global = 2.80548e-16, cumulative = 2.56103e-14
smoothSolver:  Solving for epsilon, Initial residual = 0.00448717, Final residual = 4.47388e-13, No Iterations 22
bounding epsilon, min: -0.00182544 max: 1.0978 average: 0.00716981
smoothSolver:  Solving for k, Initial residual = 0.00513511, Final residual = 5.30602e-13, No Iterations 22
ExecutionTime = 25.23 s  ClockTime = 26 s

forceCoeffs forceCoeffs write:
    Coefficient	Total	Pressure	Viscous	Internal
    Cd:	1.25823	1.19633	0.0618989	0
    Cd(f):	0.639566	0.608026	0.0315408	0
    Cd(r):	0.618662	0.588304	0.0303581	0
    Cl:	-0.0209041	-0.0197214	-0.00118272	0
    Cl(f):	-0.0101852	-0.00986071	-0.000324515	0
    Cl(r):	-0.0107189	-0.00986071	-0.000858205	0
    CmPitch:	0.000266845	-8.57211e-13	0.000266845	0
    CmRoll:	0.0104521	0.00986071	0.00059136	0
    CmYaw:	0.629114	0.598165	0.0309494	0
    Cs:	-1.52316e-20	-1.67012e-20	1.46963e-21	0
    Cs(f):	0.629114	0.598165	0.0309494	0
    Cs(r):	-0.629114	-0.598165	-0.0309494	0

[...]
GAMG:  Solving for p, Initial residual = 0.000813801, Final residual = 9.65374e-13, No Iterations 32
time step continuity errors : sum local = 1.26145e-14, global = -4.84791e-16, cumulative = -8.14624e-14
smoothSolver:  Solving for epsilon, Initial residual = 0.000379143, Final residual = 5.21034e-13, No Iterations 20
bounding epsilon, min: -0.00182712 max: 1.15286 average: 0.0130277
smoothSolver:  Solving for k, Initial residual = 0.00029796, Final residual = 8.27768e-13, No Iterations 20
ExecutionTime = 173.99 s  ClockTime = 175 s

forceCoeffs forceCoeffs write:
    Coefficient	Total	Pressure	Viscous	Internal
    Cd:	1.06402	1.00949	0.0545298	0
    Cd(f):	0.574151	0.546029	0.0281221	0
    Cd(r):	0.489866	0.463458	0.0264077	0
    Cl:	-0.0842853	-0.0825709	-0.00171436	0
    Cl(f):	-0.0420544	-0.0412855	-0.000768945	0
    Cl(r):	-0.0422309	-0.0412855	-0.000945417	0
    CmPitch:	8.8236e-05	-1.49844e-13	8.8236e-05	0
    CmRoll:	0.0421426	0.0412855	0.000857181	0
    CmYaw:	0.532008	0.504743	0.0272649	0
    Cs:	-1.84492e-20	-2.06079e-20	2.15866e-21	0
    Cs(f):	0.532008	0.504743	0.0272649	0
    Cs(r):	-0.532008	-0.504743	-0.0272649	0

    writing force and moment coefficient files.

Time = 40.6

smoothSolver:  Solving for Ux, Initial residual = 0.000422784, Final residual = 5.21749e-13, No Iterations 21
smoothSolver:  Solving for Uy, Initial residual = 0.00151261, Final residual = 6.52738e-13, No Iterations 22
GAMG:  Solving for p, Initial residual = 0.000835738, Final residual = 8.10287e-13, No Iterations 32
time step continuity errors : sum local = 1.05886e-14, global = -4.13484e-16, cumulative = -8.18759e-14
smoothSolver:  Solving for epsilon, Initial residual = 0.000377358, Final residual = 5.20497e-13, No Iterations 20
bounding epsilon, min: -0.00180577 max: 1.15282 average: 0.0130345
smoothSolver:  Solving for k, Initial residual = 0.000296017, Final residual = 8.24103e-13, No Iterations 20
ExecutionTime = 174.46 s  ClockTime = 175 s

forceCoeffs forceCoeffs write:
    Coefficient	Total	Pressure	Viscous	Internal
    Cd:	1.06391	1.00939	0.0545257	0
    Cd(f):	0.574026	0.545901	0.0281246	0
    Cd(r):	0.489888	0.463487	0.0264011	0
    Cl:	-0.0841375	-0.082414	-0.00172349	0
    Cl(f):	-0.0419778	-0.041207	-0.000770815	0
    Cl(r):	-0.0421597	-0.041207	-0.000952673	0
    CmPitch:	9.09288e-05	-1.51065e-13	9.09288e-05	0
    CmRoll:	0.0420687	0.041207	0.000861744	0
    CmYaw:	0.531957	0.504694	0.0272628	0
    Cs:	-1.84549e-20	-2.06091e-20	2.15416e-21	0
    Cs(f):	0.531957	0.504694	0.0272628	0
    Cs(r):	-0.531957	-0.504694	-0.0272628	0

    writing force and moment coefficient files.

Time = 40.7

smoothSolver:  Solving for Ux, Initial residual = 0.000420735, Final residual = 5.19955e-13, No Iterations 21
smoothSolver:  Solving for Uy, Initial residual = 0.00151035, Final residual = 6.53054e-13, No Iterations 22
GAMG:  Solving for p, Initial residual = 0.000823081, Final residual = 9.78376e-13, No Iterations 32
time step continuity errors : sum local = 1.27883e-14, global = -4.87615e-16, cumulative = -8.23635e-14
smoothSolver:  Solving for epsilon, Initial residual = 0.000377908, Final residual = 5.19619e-13, No Iterations 20
bounding epsilon, min: -0.00182712 max: 1.15278 average: 0.0130413
smoothSolver:  Solving for k, Initial residual = 0.00029506, Final residual = 8.21144e-13, No Iterations 20
ExecutionTime = 174.88 s  ClockTime = 175 s

forceCoeffs forceCoeffs write:
    Coefficient	Total	Pressure	Viscous	Internal
    Cd:	1.06378	1.00926	0.0545216	0
    Cd(f):	0.573914	0.545787	0.028127	0
    Cd(r):	0.489868	0.463474	0.0263945	0
    Cl:	-0.0840455	-0.082313	-0.0017325	0
    Cl(f):	-0.0419291	-0.0411565	-0.000772581	0
    Cl(r):	-0.0421164	-0.0411565	-0.000959916	0
    CmPitch:	9.36674e-05	-1.5205e-13	9.36674e-05	0
    CmRoll:	0.0420227	0.0411565	0.000866248	0
    CmYaw:	0.531891	0.50463	0.0272608	0
    Cs:	-1.84589e-20	-2.06105e-20	2.15155e-21	0
    Cs(f):	0.531891	0.50463	0.0272608	0
    Cs(r):	-0.531891	-0.50463	-0.0272608	0

    writing force and moment coefficient files.

Time = 40.8

smoothSolver:  Solving for Ux, Initial residual = 0.000419552, Final residual = 5.18168e-13, No Iterations 21
smoothSolver:  Solving for Uy, Initial residual = 0.00150759, Final residual = 6.53411e-13, No Iterations 22
GAMG:  Solving for p, Initial residual = 0.000835963, Final residual = 8.12003e-13, No Iterations 32
time step continuity errors : sum local = 1.06085e-14, global = -4.0911e-16, cumulative = -8.27726e-14
smoothSolver:  Solving for epsilon, Initial residual = 0.000374976, Final residual = 5.19259e-13, No Iterations 20
bounding epsilon, min: -0.00180577 max: 1.15274 average: 0.0130481
smoothSolver:  Solving for k, Initial residual = 0.000292982, Final residual = 8.17485e-13, No Iterations 20
ExecutionTime = 175.31 s  ClockTime = 176 s

forceCoeffs forceCoeffs write:
    Coefficient	Total	Pressure	Viscous	Internal
    Cd:	1.06368	1.00916	0.0545176	0
    Cd(f):	0.573775	0.545646	0.0281293	0
    Cd(r):	0.489902	0.463514	0.0263882	0
    Cl:	-0.0838726	-0.0821315	-0.00174109	0
    Cl(f):	-0.04184	-0.0410658	-0.000774209	0
    Cl(r):	-0.0420326	-0.0410658	-0.000966885	0
    CmPitch:	9.6338e-05	-1.53223e-13	9.6338e-05	0
    CmRoll:	0.0419363	0.0410658	0.000870547	0
    CmYaw:	0.531839	0.50458	0.0272588	0
    Cs:	-1.84629e-20	-2.06104e-20	2.14755e-21	0
    Cs(f):	0.531839	0.50458	0.0272588	0
    Cs(r):	-0.531839	-0.50458	-0.0272588	0

    writing force and moment coefficient files.

Time = 40.9

smoothSolver:  Solving for Ux, Initial residual = 0.000417371, Final residual = 5.16384e-13, No Iterations 21
smoothSolver:  Solving for Uy, Initial residual = 0.00150483, Final residual = 6.53888e-13, No Iterations 22
GAMG:  Solving for p, Initial residual = 0.000810086, Final residual = 9.80042e-13, No Iterations 32
time step continuity errors : sum local = 1.28134e-14, global = -4.93597e-16, cumulative = -8.32662e-14
smoothSolver:  Solving for epsilon, Initial residual = 0.000376481, Final residual = 5.18323e-13, No Iterations 20
bounding epsilon, min: -0.00182712 max: 1.1527 average: 0.0130548
smoothSolver:  Solving for k, Initial residual = 0.000291998, Final residual = 8.14365e-13, No Iterations 20
ExecutionTime = 175.7 s  ClockTime = 176 s

forceCoeffs forceCoeffs write:
    Coefficient	Total	Pressure	Viscous	Internal
    Cd:	1.06355	1.00904	0.0545136	0
    Cd(f):	0.573654	0.545522	0.0281316	0
    Cd(r):	0.489897	0.463515	0.026382	0
    Cl:	-0.0837564	-0.0820068	-0.00174959	0
    Cl(f):	-0.0417791	-0.0410034	-0.000775736	0
    Cl(r):	-0.0419773	-0.0410034	-0.00097385	0
    CmPitch:	9.90571e-05	-1.54166e-13	9.90571e-05	0
    CmRoll:	0.0418782	0.0410034	0.000874793	0
    CmYaw:	0.531776	0.504519	0.0272568	0
    Cs:	-1.84666e-20	-2.06112e-20	2.14465e-21	0
    Cs(f):	0.531776	0.504519	0.0272568	0
    Cs(r):	-0.531776	-0.504519	-0.0272568	0

    writing force and moment coefficient files.

Time = 41

smoothSolver:  Solving for Ux, Initial residual = 0.000415868, Final residual = 5.14623e-13, No Iterations 21
smoothSolver:  Solving for Uy, Initial residual = 0.0015042, Final residual = 6.54358e-13, No Iterations 22
GAMG:  Solving for p, Initial residual = 0.000800487, Final residual = 8.18616e-13, No Iterations 32
time step continuity errors : sum local = 1.07007e-14, global = -4.19552e-16, cumulative = -8.36858e-14
smoothSolver:  Solving for epsilon, Initial residual = 0.000372928, Final residual = 5.18175e-13, No Iterations 20
bounding epsilon, min: -0.00180577 max: 1.15265 average: 0.0130615
smoothSolver:  Solving for k, Initial residual = 0.000290075, Final residual = 8.10774e-13, No Iterations 20
ExecutionTime = 176.09 s  ClockTime = 177 s

forceCoeffs forceCoeffs write:
    Coefficient	Total	Pressure	Viscous	Internal
    Cd:	1.06345	1.00894	0.0545097	0
    Cd(f):	0.573504	0.54537	0.0281337	0
    Cd(r):	0.489951	0.463575	0.026376	0
    Cl:	-0.0835528	-0.0817952	-0.00175765	0
    Cl(f):	-0.0416747	-0.0408976	-0.000777122	0
    Cl(r):	-0.0418781	-0.0408976	-0.000980525	0
    CmPitch:	0.000101701	-1.55335e-13	0.000101701	0
    CmRoll:	0.0417764	0.0408976	0.000878824	0
    CmYaw:	0.531727	0.504472	0.0272548	0
    Cs:	-1.84707e-20	-2.06108e-20	2.14017e-21	0
    Cs(f):	0.531727	0.504472	0.0272548	0
    Cs(r):	-0.531727	-0.504472	-0.0272548	0

    writing force and moment coefficient files.

Time = 41.1

smoothSolver:  Solving for Ux, Initial residual = 0.000414491, Final residual = 5.12836e-13, No Iterations 21
smoothSolver:  Solving for Uy, Initial residual = 0.00150283, Final residual = 6.54817e-13, No Iterations 22
GAMG:  Solving for p, Initial residual = 0.000830531, Final residual = 9.59588e-13, No Iterations 32
time step continuity errors : sum local = 1.25488e-14, global = -4.85102e-16, cumulative = -8.41709e-14
smoothSolver:  Solving for epsilon, Initial residual = 0.000375611, Final residual = 5.17266e-13, No Iterations 20
bounding epsilon, min: -0.00182712 max: 1.1526 average: 0.0130682
smoothSolver:  Solving for k, Initial residual = 0.000289459, Final residual = 8.0788e-13, No Iterations 20
ExecutionTime = 176.48 s  ClockTime = 177 s

forceCoeffs forceCoeffs write:
    Coefficient	Total	Pressure	Viscous	Internal
    Cd:	1.06332	1.00882	0.0545058	0
    Cd(f):	0.573363	0.545227	0.0281357	0
    Cd(r):	0.48996	0.46359	0.0263701	0
    Cl:	-0.083403	-0.0816374	-0.00176558	0
    Cl(f):	-0.0415971	-0.0408187	-0.000778404	0
    Cl(r):	-0.0418059	-0.0408187	-0.000987173	0
    CmPitch:	0.000104385	-1.56278e-13	0.000104385	0
    CmRoll:	0.0417015	0.0408187	0.000882789	0
    CmYaw:	0.531661	0.504408	0.0272529	0
    Cs:	-1.84729e-20	-2.06104e-20	2.13753e-21	0
    Cs(f):	0.531661	0.504408	0.0272529	0
    Cs(r):	-0.531661	-0.504408	-0.0272529	0

    writing force and moment coefficient files.

Time = 41.2

smoothSolver:  Solving for Ux, Initial residual = 0.000412911, Final residual = 5.11095e-13, No Iterations 21
smoothSolver:  Solving for Uy, Initial residual = 0.00150024, Final residual = 6.55327e-13, No Iterations 22
GAMG:  Solving for p, Initial residual = 0.000815474, Final residual = 8.34211e-13, No Iterations 32
time step continuity errors : sum local = 1.09113e-14, global = -4.29193e-16, cumulative = -8.46001e-14
smoothSolver:  Solving for epsilon, Initial residual = 0.00037249, Final residual = 5.16533e-13, No Iterations 20
bounding epsilon, min: -0.00180577 max: 1.15256 average: 0.0130748
smoothSolver:  Solving for k, Initial residual = 0.000287526, Final residual = 8.04365e-13, No Iterations 20
ExecutionTime = 176.87 s  ClockTime = 177 s

forceCoeffs forceCoeffs write:
    Coefficient	Total	Pressure	Viscous	Internal
    Cd:	1.06323	1.00873	0.054502	0
    Cd(f):	0.573202	0.545064	0.0281376	0
    Cd(r):	0.490029	0.463665	0.0263645	0
    Cl:	-0.0831726	-0.0813996	-0.00177309	0
    Cl(f):	-0.0414793	-0.0406998	-0.000779545	0
    Cl(r):	-0.0416933	-0.0406998	-0.000993541	0
    CmPitch:	0.000106998	-1.57432e-13	0.000106998	0
    CmRoll:	0.0415863	0.0406998	0.000886543	0
    CmYaw:	0.531616	0.504364	0.027251	0
    Cs:	-1.84763e-20	-2.06093e-20	2.13297e-21	0
    Cs(f):	0.531616	0.504364	0.027251	0
    Cs(r):	-0.531616	-0.504364	-0.027251	0

    writing force and moment coefficient files.

Time = 41.3

smoothSolver:  Solving for Ux, Initial residual = 0.000411691, Final residual = 5.09321e-13, No Iterations 21
smoothSolver:  Solving for Uy, Initial residual = 0.0014978, Final residual = 6.55825e-13, No Iterations 22
GAMG:  Solving for p, Initial residual = 0.000832484, Final residual = 9.65439e-13, No Iterations 32
time step continuity errors : sum local = 1.26279e-14, global = -4.8712e-16, cumulative = -8.50872e-14
smoothSolver:  Solving for epsilon, Initial residual = 0.000375235, Final residual = 5.15811e-13, No Iterations 20
bounding epsilon, min: -0.00182712 max: 1.15251 average: 0.0130814
smoothSolver:  Solving for k, Initial residual = 0.00028738, Final residual = 8.01347e-13, No Iterations 20
ExecutionTime = 177.25 s  ClockTime = 178 s

forceCoeffs forceCoeffs write:
    Coefficient	Total	Pressure	Viscous	Internal
    Cd:	1.0631	1.0086	0.0544983	0
    Cd(f):	0.573046	0.544907	0.0281394	0
    Cd(r):	0.490051	0.463692	0.0263589	0
    Cl:	-0.0829956	-0.0812151	-0.00178047	0
    Cl(f):	-0.0413881	-0.0406076	-0.000780582	0
    Cl(r):	-0.0416074	-0.0406076	-0.000999884	0
    CmPitch:	0.000109651	-1.58356e-13	0.000109651	0
    CmRoll:	0.0414978	0.0406076	0.000890233	0
    CmYaw:	0.531548	0.504299	0.0272491	0
    Cs:	-1.84775e-20	-2.06079e-20	2.13042e-21	0
    Cs(f):	0.531548	0.504299	0.0272491	0
    Cs(r):	-0.531548	-0.504299	-0.0272491	0

    writing force and moment coefficient files.

Time = 41.4

smoothSolver:  Solving for Ux, Initial residual = 0.000410031, Final residual = 5.07624e-13, No Iterations 21
smoothSolver:  Solving for Uy, Initial residual = 0.00149763, Final residual = 6.56344e-13, No Iterations 22
GAMG:  Solving for p, Initial residual = 0.000828954, Final residual = 8.57668e-13, No Iterations 32
time step continuity errors : sum local = 1.12211e-14, global = -4.39633e-16, cumulative = -8.55268e-14
smoothSolver:  Solving for epsilon, Initial residual = 0.000371529, Final residual = 5.15136e-13, No Iterations 20
bounding epsilon, min: -0.00180577 max: 1.15246 average: 0.013088
smoothSolver:  Solving for k, Initial residual = 0.000285352, Final residual = 7.97895e-13, No Iterations 20
ExecutionTime = 177.65 s  ClockTime = 178 s

forceCoeffs forceCoeffs write:
    Coefficient	Total	Pressure	Viscous	Internal
    Cd:	1.06301	1.00852	0.0544946	0
    Cd(f):	0.572874	0.544733	0.028141	0
    Cd(r):	0.490138	0.463784	0.0263536	0
    Cl:	-0.0827361	-0.0809487	-0.00178742	0
    Cl(f):	-0.0412558	-0.0404744	-0.000781476	0
    Cl(r):	-0.0414803	-0.0404744	-0.00100594	0
    CmPitch:	0.000112233	-1.59499e-13	0.000112233	0
    CmRoll:	0.0413681	0.0404744	0.000893709	0
    CmYaw:	0.531506	0.504259	0.0272473	0
    Cs:	-1.84808e-20	-2.06063e-20	2.1255e-21	0
    Cs(f):	0.531506	0.504259	0.0272473	0
    Cs(r):	-0.531506	-0.504259	-0.0272473	0

    writing force and moment coefficient files.

Time = 41.5

smoothSolver:  Solving for Ux, Initial residual = 0.000408102, Final residual = 5.05935e-13, No Iterations 21
smoothSolver:  Solving for Uy, Initial residual = 0.0014956, Final residual = 6.56879e-13, No Iterations 22
GAMG:  Solving for p, Initial residual = 0.000843744, Final residual = 6.50812e-13, No Iterations 33
time step continuity errors : sum local = 8.52501e-15, global = -2.58961e-16, cumulative = -8.57858e-14
smoothSolver:  Solving for epsilon, Initial residual = 0.000375525, Final residual = 5.14222e-13, No Iterations 20
bounding epsilon, min: -0.00182712 max: 1.1524 average: 0.0130946
smoothSolver:  Solving for k, Initial residual = 0.000284429, Final residual = 7.95176e-13, No Iterations 20
ExecutionTime = 178.04 s  ClockTime = 179 s

forceCoeffs forceCoeffs write:
    Coefficient	Total	Pressure	Viscous	Internal
    Cd:	1.06289	1.0084	0.054491	0
    Cd(f):	0.572706	0.544564	0.0281426	0
    Cd(r):	0.490181	0.463832	0.0263484	0
    Cl:	-0.0825258	-0.0807316	-0.00179422	0
    Cl(f):	-0.0411481	-0.0403658	-0.000782262	0
    Cl(r):	-0.0413778	-0.0403658	-0.00101196	0
    CmPitch:	0.000114848	-1.60434e-13	0.000114848	0
    CmRoll:	0.0412629	0.0403658	0.00089711	0
    CmYaw:	0.531444	0.504198	0.0272455	0
    Cs:	-1.84823e-20	-2.06047e-20	2.12246e-21	0
    Cs(f):	0.531444	0.504198	0.0272455	0
    Cs(r):	-0.531444	-0.504198	-0.0272455	0

    writing force and moment coefficient files.

Time = 41.6

smoothSolver:  Solving for Ux, Initial residual = 0.000406321, Final residual = 5.04248e-13, No Iterations 21
smoothSolver:  Solving for Uy, Initial residual = 0.00149385, Final residual = 6.5736e-13, No Iterations 22
GAMG:  Solving for p, Initial residual = 0.000813324, Final residual = 8.31879e-13, No Iterations 32
time step continuity errors : sum local = 1.08885e-14, global = -4.26287e-16, cumulative = -8.62121e-14
smoothSolver:  Solving for epsilon, Initial residual = 0.000370464, Final residual = 5.13453e-13, No Iterations 20
bounding epsilon, min: -0.00180577 max: 1.15235 average: 0.0131011
smoothSolver:  Solving for k, Initial residual = 0.000282087, Final residual = 7.91811e-13, No Iterations 20
ExecutionTime = 178.42 s  ClockTime = 179 s

forceCoeffs forceCoeffs write:
    Coefficient	Total	Pressure	Viscous	Internal
    Cd:	1.06279	1.00831	0.0544874	0
    Cd(f):	0.572514	0.54437	0.028144	0
    Cd(r):	0.490278	0.463935	0.0263434	0
    Cl:	-0.0822363	-0.0804357	-0.00180059	0
    Cl(f):	-0.0410007	-0.0402178	-0.000782904	0
    Cl(r):	-0.0412355	-0.0402178	-0.00101768	0
    CmPitch:	0.00011739	-1.61565e-13	0.00011739	0
    CmRoll:	0.0411181	0.0402178	0.000900294	0
    CmYaw:	0.531396	0.504153	0.0272437	0
    Cs:	-1.84835e-20	-2.06016e-20	2.11816e-21	0
    Cs(f):	0.531396	0.504153	0.0272437	0
    Cs(r):	-0.531396	-0.504153	-0.0272437	0

    writing force and moment coefficient files.

Time = 41.7

smoothSolver:  Solving for Ux, Initial residual = 0.000404623, Final residual = 5.02557e-13, No Iterations 21
smoothSolver:  Solving for Uy, Initial residual = 0.00149082, Final residual = 6.57858e-13, No Iterations 22
GAMG:  Solving for p, Initial residual = 0.000781682, Final residual = 9.88123e-13, No Iterations 32
time step continuity errors : sum local = 1.29353e-14, global = -5.03531e-16, cumulative = -8.67156e-14
smoothSolver:  Solving for epsilon, Initial residual = 0.000372671, Final residual = 5.12031e-13, No Iterations 20
bounding epsilon, min: -0.00182712 max: 1.1523 average: 0.0131076
smoothSolver:  Solving for k, Initial residual = 0.000281424, Final residual = 7.8879e-13, No Iterations 20
ExecutionTime = 178.81 s  ClockTime = 179 s

forceCoeffs forceCoeffs write:
    Coefficient	Total	Pressure	Viscous	Internal
    Cd:	1.06267	1.00818	0.0544838	0
    Cd(f):	0.572333	0.544188	0.0281453	0
    Cd(r):	0.490334	0.463995	0.0263385	0
    Cl:	-0.0819993	-0.0801925	-0.00180682	0
    Cl(f):	-0.0408797	-0.0400962	-0.000783439	0
    Cl(r):	-0.0411196	-0.0400962	-0.00102338	0
    CmPitch:	0.00011997	-1.62483e-13	0.00011997	0
    CmRoll:	0.0409996	0.0400962	0.000903409	0
    CmYaw:	0.531333	0.504091	0.0272419	0
    Cs:	-1.8484e-20	-2.0599e-20	2.11506e-21	0
    Cs(f):	0.531333	0.504091	0.0272419	0
    Cs(r):	-0.531333	-0.504091	-0.0272419	0

    writing force and moment coefficient files.

Time = 41.8

smoothSolver:  Solving for Ux, Initial residual = 0.000403407, Final residual = 5.00892e-13, No Iterations 21
smoothSolver:  Solving for Uy, Initial residual = 0.0014911, Final residual = 6.58317e-13, No Iterations 22
GAMG:  Solving for p, Initial residual = 0.000815104, Final residual = 8.30277e-13, No Iterations 32
time step continuity errors : sum local = 1.08708e-14, global = -4.30404e-16, cumulative = -8.7146e-14
smoothSolver:  Solving for epsilon, Initial residual = 0.000370984, Final residual = 5.11849e-13, No Iterations 20
bounding epsilon, min: -0.00180577 max: 1.15224 average: 0.013114
smoothSolver:  Solving for k, Initial residual = 0.000279689, Final residual = 7.85425e-13, No Iterations 20
ExecutionTime = 179.21 s  ClockTime = 180 s

forceCoeffs forceCoeffs write:
    Coefficient	Total	Pressure	Viscous	Internal
    Cd:	1.06257	1.00809	0.0544804	0
    Cd(f):	0.572125	0.543978	0.0281465	0
    Cd(r):	0.490449	0.464116	0.0263339	0
    Cl:	-0.0816752	-0.0798626	-0.00181259	0
    Cl(f):	-0.0407151	-0.0399313	-0.000783826	0
    Cl(r):	-0.0409601	-0.0399313	-0.00102876	0
    CmPitch:	0.000122469	-1.63627e-13	0.000122469	0
    CmRoll:	0.0408376	0.0399313	0.000906295	0
    CmYaw:	0.531287	0.504047	0.0272402	0
    Cs:	-1.84853e-20	-2.05954e-20	2.11012e-21	0
    Cs(f):	0.531287	0.504047	0.0272402	0
    Cs(r):	-0.531287	-0.504047	-0.0272402	0

    writing force and moment coefficient files.

Time = 41.9

smoothSolver:  Solving for Ux, Initial residual = 0.000401606, Final residual = 4.99214e-13, No Iterations 21
smoothSolver:  Solving for Uy, Initial residual = 0.00148968, Final residual = 6.58707e-13, No Iterations 22
