/*---------------------------------------------------------------------------*\
| =========                 |                                                 |
| \\      /  F ield         | OpenFOAM: The Open Source CFD Toolbox           |
|  \\    /   O peration     | Version:  2312                                  |
|   \\  /    A nd           | Website:  www.openfoam.com                      |
|    \\/     M anipulation  |                                                 |
\*---------------------------------------------------------------------------*/
Build  : _c39a0f64-20231220 OPENFOAM=2312 version=2312
Arch   : "LSB;label=32;scalar=64"
Exec   : pimpleFoam
Date   : Jun 09 2024
Time   : 23:21:12
Host   : Manas
PID    : 21594
I/O    : uncollated
Case   : /home/manascfd/Masters_Projects_Main/Temp/CF_Spalart-Allmaras_1
nProcs : 1
trapFpe: Floating point exception trapping enabled (FOAM_SIGFPE).
fileModificationChecking : Monitoring run-time modified files using timeStampMaster (fileModificationSkew 5, maxFileModificationPolls 20)
allowSystemOperations : Allowing user-supplied system call operations

// * * * * * * * * * * * * * * * * * * * * * * * * * * * * * * * * * * * * * //
Create time

Create mesh for time = 0


PIMPLE: max iterations = 3
    field p	: relTol 0.1, tolerance 0.001
    field U	: relTol 0.1, tolerance 0.001
    field "(k|epsilon|omega|f|v2|nuTilda)"	: relTol 0.1, tolerance 0.001

Reading field p

Reading field U

Reading/calculating face flux field phi

Selecting incompressible transport model Newtonian
Selecting turbulence model type RAS
Selecting RAS turbulence model SpalartAllmaras
Selecting patchDistMethod meshWave
ft2 term: inactive
RAS
{
    RASModel        SpalartAllmaras;
    turbulence      on;
    printCoeffs     on;
    sigmaNut        0.66666;
    kappa           0.41;
    Cb1             0.1355;
    Cb2             0.622;
    Cw2             0.3;
    Cw3             2;
    Cv1             7.1;
    Cs              0.3;
    ck              0.07;
    ft2             false;
    Ct3             1.2;
    Ct4             0.5;
}

No MRF models present

No finite volume options present
Courant Number mean: 0.00130684 max: 0.152388
Courant Number mean: 0.00130684 max: 0.152388

Starting time loop

forceCoeffs forceCoeffs:
    rho: rhoInf
    Freestream density (rhoInf) set to 1
    Not including porosity effects
    magUInf: 1
    lRef   : 1
    Aref   : 1
    rhoInf : 1
    Selecting all coefficients
    - Drag force: Cd
    - Drag force front: Cd(f)
    - Drag force rear: Cd(r)
    - Lift force: Cl
    - Lift force front: Cl(f)
    - Lift force rear: Cl(r)
    - Pitch moment: CmPitch
    - Roll moment: CmRoll
    - Yaw moment: CmYaw
    - Side force: Cs
    - Side force front: Cs(f)
    - Side force rear: Cs(r)


Sampled set:
    sampleLine_U -> raw

streamLine streamlines:
    Employing velocity field U
    automatic track length specified through number of sub cycles : 5

Courant Number mean: 0.00130684 max: 0.152388
Time = 1

PIMPLE: iteration 1
smoothSolver:  Solving for Ux, Initial residual = 1, Final residual = 2.4041e-07, No Iterations 1
smoothSolver:  Solving for Uy, Initial residual = 1, Final residual = 1.29523e-07, No Iterations 1
GAMG:  Solving for p, Initial residual = 1, Final residual = 0.0912718, No Iterations 8
time step continuity errors : sum local = 0.000238555, global = -6.62972e-06, cumulative = -6.62972e-06
GAMG:  Solving for p, Initial residual = 0.034983, Final residual = 7.11791e-07, No Iterations 18
time step continuity errors : sum local = 3.92921e-07, global = -2.67821e-08, cumulative = -6.6565e-06
PIMPLE: iteration 2
smoothSolver:  Solving for Ux, Initial residual = 0.707218, Final residual = 0.035119, No Iterations 1
smoothSolver:  Solving for Uy, Initial residual = 0.164986, Final residual = 0.00647192, No Iterations 1
GAMG:  Solving for p, Initial residual = 0.024357, Final residual = 0.00153901, No Iterations 6
time step continuity errors : sum local = 0.000589004, global = -1.79125e-05, cumulative = -2.4569e-05
GAMG:  Solving for p, Initial residual = 0.0200349, Final residual = 7.28996e-07, No Iterations 17
time step continuity errors : sum local = 5.12535e-07, global = 4.98508e-09, cumulative = -2.4564e-05
PIMPLE: iteration 3
smoothSolver:  Solving for Ux, Initial residual = 0.654794, Final residual = 4.55439e-07, No Iterations 11
smoothSolver:  Solving for Uy, Initial residual = 0.157805, Final residual = 7.52897e-07, No Iterations 10
GAMG:  Solving for p, Initial residual = 0.0118938, Final residual = 0.000843498, No Iterations 4
time step continuity errors : sum local = 0.00125575, global = -2.15964e-05, cumulative = -4.61605e-05
GAMG:  Solving for p, Initial residual = 0.00827971, Final residual = 9.46631e-07, No Iterations 10
time step continuity errors : sum local = 1.74507e-06, global = -1.11687e-07, cumulative = -4.62722e-05
smoothSolver:  Solving for nuTilda, Initial residual = 1, Final residual = 1.60339e+290, No Iterations 1000
bounding nuTilda, min: -6.44824e+287 max: 5.75014e+287 average: -7.42781e+282
