/*---------------------------------------------------------------------------*\
| =========                 |                                                 |
| \\      /  F ield         | OpenFOAM: The Open Source CFD Toolbox           |
|  \\    /   O peration     | Version:  2312                                  |
|   \\  /    A nd           | Website:  www.openfoam.com                      |
|    \\/     M anipulation  |                                                 |
\*---------------------------------------------------------------------------*/
Build  : _c39a0f64-20231220 OPENFOAM=2312 version=2312
Arch   : "LSB;label=32;scalar=64"
Exec   : simpleFoam
Date   : Jun 06 2024
Time   : 13:26:36
Host   : Manas
PID    : 143680
I/O    : uncollated
Case   : /home/manascfd/Masters_Projects_Main/CF_Spalart-Allmaras_1
nProcs : 1
trapFpe: Floating point exception trapping enabled (FOAM_SIGFPE).
fileModificationChecking : Monitoring run-time modified files using timeStampMaster (fileModificationSkew 5, maxFileModificationPolls 20)
allowSystemOperations : Allowing user-supplied system call operations

// * * * * * * * * * * * * * * * * * * * * * * * * * * * * * * * * * * * * * //
Create time

Create mesh for time = 0


SIMPLE: convergence criteria
    field p	 tolerance 1e-12
    field U	 tolerance 1e-12
    field "nut|nuTilda"	 tolerance 1e-12

Reading field p

Reading field U

Reading/calculating face flux field phi

Selecting incompressible transport model Newtonian
Selecting turbulence model type RAS
Selecting RAS turbulence model SpalartAllmaras
Selecting patchDistMethod meshWave
ft2 term: inactive
RAS
{
    RASModel        SpalartAllmaras;
    turbulence      on;
    printCoeffs     on;
    sigmaNut        0.66666;
    kappa           0.41;
    Cb1             0.1355;
    Cb2             0.622;
    Cw2             0.3;
    Cw3             2;
    Cv1             7.1;
    Cs              0.3;
    ck              0.07;
    ft2             false;
    Ct3             1.2;
    Ct4             0.5;
}

No MRF models present

No finite volume options present

Starting time loop

forceCoeffs forceCoeffs:
    rho: rhoInf
    Freestream density (rhoInf) set to 1
    Not including porosity effects
    magUInf: 1
    lRef   : 1
    Aref   : 1
    rhoInf : 1
    Selecting all coefficients
    - Drag force: Cd
    - Drag force front: Cd(f)
    - Drag force rear: Cd(r)
    - Lift force: Cl
    - Lift force front: Cl(f)
    - Lift force rear: Cl(r)
    - Pitch moment: CmPitch
    - Roll moment: CmRoll
    - Yaw moment: CmYaw
    - Side force: Cs
    - Side force front: Cs(f)
    - Side force rear: Cs(r)


Sampled set:
    sampleLine_U -> raw

streamLine streamlines:
    Employing velocity field U
    automatic track length specified through number of sub cycles : 5

Time = 1

smoothSolver:  Solving for Ux, Initial residual = 1, Final residual = 9.1474e-13, No Iterations 64
smoothSolver:  Solving for Uy, Initial residual = 1, Final residual = 8.2839e-13, No Iterations 71
GAMG:  Solving for p, Initial residual = 1, Final residual = 9.46662e-12, No Iterations 1000
time step continuity errors : sum local = 3.09437e-14, global = -6.90141e-17, cumulative = -6.90141e-17
smoothSolver:  Solving for nuTilda, Initial residual = 1, Final residual = 8.05762e-13, No Iterations 80
ExecutionTime = 6.64 s  ClockTime = 7 s

forceCoeffs forceCoeffs write:
    Coefficient	Total	Pressure	Viscous	Internal
    Cd:	0.000153344	0.000150128	3.21643e-06	0
    Cd(f):	7.57878e-05	7.41908e-05	1.59704e-06	0
    Cd(r):	7.75566e-05	7.59372e-05	1.61939e-06	0
    Cl:	1.7688e-06	1.74645e-06	2.23494e-08	0
    Cl(f):	8.90887e-07	8.73226e-07	1.76614e-08	0
    Cl(r):	8.77914e-07	8.73226e-07	4.68803e-09	0
    CmPitch:	6.48668e-09	1.45518e-18	6.48668e-09	0
    CmRoll:	-8.844e-07	-8.73226e-07	-1.11747e-08	0
    CmYaw:	7.66722e-05	7.5064e-05	1.60821e-06	0
    Cs:	-7.98045e-23	-2.84474e-23	-5.13571e-23	0
    Cs(f):	7.66722e-05	7.5064e-05	1.60821e-06	0
    Cs(r):	-7.66722e-05	-7.5064e-05	-1.60821e-06	0

    writing force and moment coefficient files.

Time = 2

smoothSolver:  Solving for Ux, Initial residual = 0.329862, Final residual = 8.89982e-13, No Iterations 66
smoothSolver:  Solving for Uy, Initial residual = 0.615112, Final residual = 8.54939e-13, No Iterations 67
GAMG:  Solving for p, Initial residual = 0.238745, Final residual = 4.84463e-13, No Iterations 46
time step continuity errors : sum local = 2.62489e-14, global = 1.29383e-15, cumulative = 1.22482e-15
smoothSolver:  Solving for nuTilda, Initial residual = 0.340963, Final residual = 8.66417e-13, No Iterations 76
ExecutionTime = 7.39 s  ClockTime = 7 s

forceCoeffs forceCoeffs write:
    Coefficient	Total	Pressure	Viscous	Internal
    Cd:	0.000694478	0.00067577	1.87077e-05	0
    Cd(f):	0.000351793	0.000342361	9.43199e-06	0
    Cd(r):	0.000342684	0.000333409	9.27569e-06	0
    Cl:	-9.10894e-06	-8.95264e-06	-1.56296e-07	0
    Cl(f):	-4.60043e-06	-4.47632e-06	-1.24115e-07	0
    Cl(r):	-4.5085e-06	-4.47632e-06	-3.2181e-08	0
    CmPitch:	-4.59668e-08	5.09205e-17	-4.59668e-08	0
    CmRoll:	4.55447e-06	4.47632e-06	7.81479e-08	0
    CmYaw:	0.000347239	0.000337885	9.35384e-06	0
    Cs:	2.77408e-23	-8.19863e-24	3.59395e-23	0
    Cs(f):	0.000347239	0.000337885	9.35384e-06	0
    Cs(r):	-0.000347239	-0.000337885	-9.35384e-06	0

    writing force and moment coefficient files.

Time = 3

smoothSolver:  Solving for Ux, Initial residual = 0.121921, Final residual = 8.32718e-13, No Iterations 67
smoothSolver:  Solving for Uy, Initial residual = 0.547715, Final residual = 9.20621e-13, No Iterations 70
GAMG:  Solving for p, Initial residual = 0.167939, Final residual = 7.24317e-13, No Iterations 48
time step continuity errors : sum local = 2.55178e-14, global = -4.83464e-16, cumulative = 7.41355e-16
smoothSolver:  Solving for nuTilda, Initial residual = 0.249627, Final residual = 9.30756e-13, No Iterations 74
ExecutionTime = 8.17 s  ClockTime = 8 s

forceCoeffs forceCoeffs write:
    Coefficient	Total	Pressure	Viscous	Internal
    Cd:	0.00122359	0.00119055	3.30398e-05	0
    Cd(f):	0.00062214	0.000605338	1.68019e-05	0
    Cd(r):	0.000601447	0.000585209	1.62379e-05	0
    Cl:	-2.06937e-05	-2.01296e-05	-5.64029e-07	0
    Cl(f):	-1.03815e-05	-1.00648e-05	-3.16664e-07	0
    Cl(r):	-1.03122e-05	-1.00648e-05	-2.47364e-07	0
    CmPitch:	-3.465e-08	1.03888e-16	-3.465e-08	0
    CmRoll:	1.03468e-05	1.00648e-05	2.82014e-07	0
    CmYaw:	0.000611793	0.000595274	1.65199e-05	0
    Cs:	-8.68781e-24	-1.67645e-23	8.07668e-24	0
    Cs(f):	0.000611793	0.000595274	1.65199e-05	0
    Cs(r):	-0.000611793	-0.000595274	-1.65199e-05	0

    writing force and moment coefficient files.

Time = 4

smoothSolver:  Solving for Ux, Initial residual = 0.0616544, Final residual = 8.16885e-13, No Iterations 68
smoothSolver:  Solving for Uy, Initial residual = 0.368586, Final residual = 9.34905e-13, No Iterations 71
GAMG:  Solving for p, Initial residual = 0.088898, Final residual = 9.05786e-13, No Iterations 44
time step continuity errors : sum local = 3.11761e-14, global = -1.31401e-16, cumulative = 6.09954e-16
smoothSolver:  Solving for nuTilda, Initial residual = 0.203089, Final residual = 8.44309e-13, No Iterations 73
ExecutionTime = 8.9 s  ClockTime = 9 s

forceCoeffs forceCoeffs write:
    Coefficient	Total	Pressure	Viscous	Internal
    Cd:	0.00148326	0.00144185	4.14099e-05	0
    Cd(f):	0.000757633	0.000736498	2.11352e-05	0
    Cd(r):	0.000725632	0.000705357	2.02747e-05	0
    Cl:	-3.20013e-05	-3.11409e-05	-8.60448e-07	0
    Cl(f):	-1.59863e-05	-1.55704e-05	-4.15859e-07	0
    Cl(r):	-1.6015e-05	-1.55704e-05	-4.44589e-07	0
    CmPitch:	1.43648e-08	1.62049e-16	1.43648e-08	0
    CmRoll:	1.60007e-05	1.55704e-05	4.30224e-07	0
    CmYaw:	0.000741632	0.000720927	2.07049e-05	0
    Cs:	-2.50899e-23	-2.42274e-23	-8.62508e-25	0
    Cs(f):	0.000741632	0.000720927	2.07049e-05	0
    Cs(r):	-0.000741632	-0.000720927	-2.07049e-05	0

    writing force and moment coefficient files.

Time = 5

smoothSolver:  Solving for Ux, Initial residual = 0.0410327, Final residual = 9.84683e-13, No Iterations 68
smoothSolver:  Solving for Uy, Initial residual = 0.237524, Final residual = 9.81145e-13, No Iterations 71
GAMG:  Solving for p, Initial residual = 0.0797584, Final residual = 9.07665e-13, No Iterations 43
time step continuity errors : sum local = 2.73384e-14, global = -1.82043e-15, cumulative = -1.21047e-15
smoothSolver:  Solving for nuTilda, Initial residual = 0.15863, Final residual = 8.13702e-13, No Iterations 72
ExecutionTime = 9.66 s  ClockTime = 10 s

forceCoeffs forceCoeffs write:
    Coefficient	Total	Pressure	Viscous	Internal
    Cd:	0.00161691	0.00157044	4.64679e-05	0
    Cd(f):	0.000826361	0.000802571	2.379e-05	0
    Cd(r):	0.000790552	0.000767874	2.26779e-05	0
    Cl:	-3.5809e-05	-3.4697e-05	-1.11204e-06	0
    Cl(f):	-1.78123e-05	-1.73485e-05	-4.63782e-07	0
    Cl(r):	-1.79968e-05	-1.73485e-05	-6.48258e-07	0
    CmPitch:	9.22383e-08	1.979e-16	9.22383e-08	0
    CmRoll:	1.79045e-05	1.73485e-05	5.5602e-07	0
    CmYaw:	0.000808456	0.000785222	2.3234e-05	0
    Cs:	-4.04828e-23	-3.1275e-23	-9.20777e-24	0
    Cs(f):	0.000808456	0.000785222	2.3234e-05	0
    Cs(r):	-0.000808456	-0.000785222	-2.3234e-05	0

    writing force and moment coefficient files.

Time = 6

smoothSolver:  Solving for Ux, Initial residual = 0.032527, Final residual = 8.73908e-13, No Iterations 69
smoothSolver:  Solving for Uy, Initial residual = 0.170861, Final residual = 9.5343e-13, No Iterations 71
GAMG:  Solving for p, Initial residual = 0.0688559, Final residual = 6.42895e-13, No Iterations 43
time step continuity errors : sum local = 1.83279e-14, global = -1.1547e-15, cumulative = -2.36518e-15
smoothSolver:  Solving for nuTilda, Initial residual = 0.11338, Final residual = 8.58192e-13, No Iterations 71
ExecutionTime = 10.31 s  ClockTime = 10 s

forceCoeffs forceCoeffs write:
    Coefficient	Total	Pressure	Viscous	Internal
    Cd:	0.00165485	0.00160547	4.93785e-05	0
    Cd(f):	0.000843357	0.000818066	2.52908e-05	0
    Cd(r):	0.000811494	0.000787406	2.40877e-05	0
    Cl:	-3.18628e-05	-3.06597e-05	-1.20304e-06	0
    Cl(f):	-1.57797e-05	-1.53299e-05	-4.49786e-07	0
    Cl(r):	-1.60831e-05	-1.53299e-05	-7.53257e-07	0
    CmPitch:	1.51736e-07	1.93707e-16	1.51736e-07	0
    CmRoll:	1.59314e-05	1.53299e-05	6.01521e-07	0
    CmYaw:	0.000827425	0.000802736	2.46892e-05	0
    Cs:	-5.17823e-23	-3.63557e-23	-1.54266e-23	0
    Cs(f):	0.000827425	0.000802736	2.46892e-05	0
    Cs(r):	-0.000827425	-0.000802736	-2.46892e-05	0

    writing force and moment coefficient files.

Time = 7

smoothSolver:  Solving for Ux, Initial residual = 0.0281695, Final residual = 7.73018e-13, No Iterations 70
smoothSolver:  Solving for Uy, Initial residual = 0.131982, Final residual = 9.39451e-13, No Iterations 71
GAMG:  Solving for p, Initial residual = 0.0488673, Final residual = 8.31082e-13, No Iterations 43
time step continuity errors : sum local = 2.79151e-14, global = -1.94916e-15, cumulative = -4.31434e-15
smoothSolver:  Solving for nuTilda, Initial residual = 0.0784909, Final residual = 9.95215e-13, No Iterations 70
ExecutionTime = 10.96 s  ClockTime = 11 s

forceCoeffs forceCoeffs write:
    Coefficient	Total	Pressure	Viscous	Internal
    Cd:	0.0016295	0.0015791	5.04015e-05	0
    Cd(f):	0.000825732	0.000799968	2.57644e-05	0
    Cd(r):	0.000803771	0.000779134	2.46371e-05	0
    Cl:	-2.19616e-05	-2.08343e-05	-1.12735e-06	0
    Cl(f):	-1.07945e-05	-1.04171e-05	-3.77419e-07	0
    Cl(r):	-1.11671e-05	-1.04171e-05	-7.49932e-07	0
    CmPitch:	1.86256e-07	1.36139e-16	1.86256e-07	0
    CmRoll:	1.09808e-05	1.04171e-05	5.63675e-07	0
    CmYaw:	0.000814751	0.000789551	2.52007e-05	0
    Cs:	-5.84394e-23	-3.97549e-23	-1.86845e-23	0
    Cs(f):	0.000814751	0.000789551	2.52007e-05	0
    Cs(r):	-0.000814751	-0.000789551	-2.52007e-05	0

    writing force and moment coefficient files.

Time = 8

smoothSolver:  Solving for Ux, Initial residual = 0.0257458, Final residual = 9.32875e-13, No Iterations 70
smoothSolver:  Solving for Uy, Initial residual = 0.111957, Final residual = 9.33616e-13, No Iterations 71
GAMG:  Solving for p, Initial residual = 0.0370667, Final residual = 8.11758e-13, No Iterations 43
time step continuity errors : sum local = 3.15611e-14, global = -2.28228e-15, cumulative = -6.59663e-15
smoothSolver:  Solving for nuTilda, Initial residual = 0.0598338, Final residual = 8.78467e-13, No Iterations 70
ExecutionTime = 11.76 s  ClockTime = 12 s

forceCoeffs forceCoeffs write:
    Coefficient	Total	Pressure	Viscous	Internal
    Cd:	0.00157405	0.00152382	5.02267e-05	0
    Cd(f):	0.000791035	0.000765516	2.55184e-05	0
    Cd(r):	0.000783015	0.000758307	2.47083e-05	0
    Cl:	-8.01971e-06	-7.20957e-06	-8.1014e-07	0
    Cl(f):	-3.88151e-06	-3.60478e-06	-2.76724e-07	0
    Cl(r):	-4.1382e-06	-3.60478e-06	-5.33415e-07	0
    CmPitch:	1.28345e-07	1.41477e-16	1.28345e-07	0
    CmRoll:	4.00985e-06	3.60478e-06	4.0507e-07	0
    CmYaw:	0.000787025	0.000761912	2.51134e-05	0
    Cs:	-6.10676e-23	-4.19583e-23	-1.91093e-23	0
    Cs(f):	0.000787025	0.000761912	2.51134e-05	0
    Cs(r):	-0.000787025	-0.000761912	-2.51134e-05	0

    writing force and moment coefficient files.

Time = 9

smoothSolver:  Solving for Ux, Initial residual = 0.0244077, Final residual = 7.64154e-13, No Iterations 71
smoothSolver:  Solving for Uy, Initial residual = 0.100546, Final residual = 9.46726e-13, No Iterations 71
GAMG:  Solving for p, Initial residual = 0.0295851, Final residual = 9.79713e-13, No Iterations 43
time step continuity errors : sum local = 4.34865e-14, global = 5.1439e-16, cumulative = -6.08224e-15
smoothSolver:  Solving for nuTilda, Initial residual = 0.0525352, Final residual = 7.85266e-13, No Iterations 70
ExecutionTime = 12.44 s  ClockTime = 12 s

forceCoeffs forceCoeffs write:
    Coefficient	Total	Pressure	Viscous	Internal
    Cd:	0.00151598	0.00146641	4.95662e-05	0
    Cd(f):	0.000753731	0.000728758	2.49734e-05	0
    Cd(r):	0.000762247	0.000737654	2.45928e-05	0
    Cl:	8.51579e-06	8.89636e-06	-3.80577e-07	0
    Cl(f):	4.31774e-06	4.44818e-06	-1.30441e-07	0
    Cl(r):	4.19805e-06	4.44818e-06	-2.50136e-07	0
    CmPitch:	5.98476e-08	-3.04625e-17	5.98476e-08	0
    CmRoll:	-4.25789e-06	-4.44818e-06	1.90288e-07	0
    CmYaw:	0.000757989	0.000733206	2.47831e-05	0
    Cs:	-6.28171e-23	-4.33594e-23	-1.94577e-23	0
    Cs(f):	0.000757989	0.000733206	2.47831e-05	0
    Cs(r):	-0.000757989	-0.000733206	-2.47831e-05	0

    writing force and moment coefficient files.

Time = 10

smoothSolver:  Solving for Ux, Initial residual = 0.0235827, Final residual = 8.0309e-13, No Iterations 71
smoothSolver:  Solving for Uy, Initial residual = 0.0923319, Final residual = 9.50703e-13, No Iterations 71
GAMG:  Solving for p, Initial residual = 0.0243443, Final residual = 9.37143e-13, No Iterations 42
time step continuity errors : sum local = 4.68673e-14, global = -3.44462e-15, cumulative = -9.52686e-15
smoothSolver:  Solving for nuTilda, Initial residual = 0.0471314, Final residual = 9.78447e-13, No Iterations 69
ExecutionTime = 13.07 s  ClockTime = 13 s

forceCoeffs forceCoeffs write:
    Coefficient	Total	Pressure	Viscous	Internal
    Cd:	0.0014728	0.00142395	4.88413e-05	0
    Cd(f):	0.000724314	0.000699929	2.43853e-05	0
    Cd(r):	0.000748482	0.000724026	2.4456e-05	0
    Cl:	2.41675e-05	2.40968e-05	7.06178e-08	0
    Cl(f):	1.20962e-05	1.20484e-05	4.78246e-08	0
    Cl(r):	1.20712e-05	1.20484e-05	2.27932e-08	0
    CmPitch:	1.25157e-08	-1.951e-16	1.25157e-08	0
    CmRoll:	-1.20837e-05	-1.20484e-05	-3.53089e-08	0
    CmYaw:	0.000736398	0.000711977	2.44206e-05	0
    Cs:	-6.29124e-23	-4.41468e-23	-1.87656e-23	0
    Cs(f):	0.000736398	0.000711977	2.44206e-05	0
    Cs(r):	-0.000736398	-0.000711977	-2.44206e-05	0

    writing force and moment coefficient files.

Time = 11

smoothSolver:  Solving for Ux, Initial residual = 0.0232025, Final residual = 7.94413e-13, No Iterations 71
smoothSolver:  Solving for Uy, Initial residual = 0.085833, Final residual = 9.20408e-13, No Iterations 71
GAMG:  Solving for p, Initial residual = 0.0205767, Final residual = 7.03822e-13, No Iterations 42
time step continuity errors : sum local = 3.90744e-14, global = -2.94259e-15, cumulative = -1.24695e-14
smoothSolver:  Solving for nuTilda, Initial residual = 0.0420435, Final residual = 8.88537e-13, No Iterations 69
ExecutionTime = 13.73 s  ClockTime = 14 s

forceCoeffs forceCoeffs write:
    Coefficient	Total	Pressure	Viscous	Internal
    Cd:	0.00145434	0.00140614	4.81986e-05	0
    Cd(f):	0.00070799	0.000684138	2.38519e-05	0
    Cd(r):	0.000746349	0.000722002	2.43466e-05	0
    Cl:	3.83583e-05	3.78636e-05	4.94701e-07	0
    Cl(f):	1.91753e-05	1.89318e-05	2.43516e-07	0
    Cl(r):	1.9183e-05	1.89318e-05	2.51184e-07	0
    CmPitch:	-3.83384e-09	-3.08081e-16	-3.83384e-09	0
    CmRoll:	-1.91792e-05	-1.89318e-05	-2.4735e-07	0
    CmYaw:	0.000727169	0.00070307	2.40993e-05	0
    Cs:	-6.198e-23	-4.43905e-23	-1.75895e-23	0
    Cs(f):	0.000727169	0.00070307	2.40993e-05	0
    Cs(r):	-0.000727169	-0.00070307	-2.40993e-05	0

    writing force and moment coefficient files.

Time = 12

smoothSolver:  Solving for Ux, Initial residual = 0.0230853, Final residual = 7.4497e-13, No Iterations 71
smoothSolver:  Solving for Uy, Initial residual = 0.0805716, Final residual = 9.02917e-13, No Iterations 71
GAMG:  Solving for p, Initial residual = 0.0177959, Final residual = 4.80513e-13, No Iterations 42
time step continuity errors : sum local = 2.90584e-14, global = -2.26902e-15, cumulative = -1.47385e-14
smoothSolver:  Solving for nuTilda, Initial residual = 0.0381772, Final residual = 8.71872e-13, No Iterations 69
ExecutionTime = 14.4 s  ClockTime = 14 s

forceCoeffs forceCoeffs write:
    Coefficient	Total	Pressure	Viscous	Internal
    Cd:	0.00146282	0.00141503	4.77915e-05	0
    Cd(f):	0.000706261	0.00068281	2.3451e-05	0
    Cd(r):	0.000756564	0.000732223	2.43405e-05	0
    Cl:	5.0303e-05	4.94135e-05	8.89529e-07	0
    Cl(f):	2.51419e-05	2.47067e-05	4.35202e-07	0
    Cl(r):	2.51611e-05	2.47067e-05	4.54327e-07	0
    CmPitch:	-9.5622e-09	-1.49798e-16	-9.5622e-09	0
    CmRoll:	-2.51515e-05	-2.47067e-05	-4.44764e-07	0
    CmYaw:	0.000731412	0.000707516	2.38957e-05	0
    Cs:	-6.05509e-23	-4.42627e-23	-1.62882e-23	0
    Cs(f):	0.000731412	0.000707516	2.38957e-05	0
    Cs(r):	-0.000731412	-0.000707516	-2.38957e-05	0

    writing force and moment coefficient files.

Time = 13

smoothSolver:  Solving for Ux, Initial residual = 0.0232483, Final residual = 9.40056e-13, No Iterations 70
smoothSolver:  Solving for Uy, Initial residual = 0.07569, Final residual = 9.48942e-13, No Iterations 71
GAMG:  Solving for p, Initial residual = 0.0158029, Final residual = 9.21657e-13, No Iterations 40
time step continuity errors : sum local = 5.91646e-14, global = -4.7977e-15, cumulative = -1.95362e-14
smoothSolver:  Solving for nuTilda, Initial residual = 0.0358075, Final residual = 9.25042e-13, No Iterations 69
ExecutionTime = 15.03 s  ClockTime = 15 s

forceCoeffs forceCoeffs write:
    Coefficient	Total	Pressure	Viscous	Internal
    Cd:	0.00149537	0.00144754	4.78319e-05	0
    Cd(f):	0.000718147	0.000694836	2.33109e-05	0
    Cd(r):	0.000777221	0.0007527	2.4521e-05	0
    Cl:	5.90739e-05	5.78638e-05	1.21009e-06	0
    Cl(f):	2.95306e-05	2.89319e-05	5.98718e-07	0
    Cl(r):	2.95433e-05	2.89319e-05	6.11375e-07	0
    CmPitch:	-6.32877e-09	2.39909e-17	-6.32877e-09	0
    CmRoll:	-2.9537e-05	-2.89319e-05	-6.05046e-07	0
    CmYaw:	0.000747684	0.000723768	2.39159e-05	0
    Cs:	-5.81138e-23	-4.38841e-23	-1.42297e-23	0
    Cs(f):	0.000747684	0.000723768	2.39159e-05	0
    Cs(r):	-0.000747684	-0.000723768	-2.39159e-05	0

    writing force and moment coefficient files.

Time = 14

smoothSolver:  Solving for Ux, Initial residual = 0.0235892, Final residual = 8.28064e-13, No Iterations 70
smoothSolver:  Solving for Uy, Initial residual = 0.0709924, Final residual = 9.77543e-13, No Iterations 71
GAMG:  Solving for p, Initial residual = 0.014507, Final residual = 9.7766e-13, No Iterations 40
time step continuity errors : sum local = 6.47852e-14, global = -3.48311e-15, cumulative = -2.30193e-14
smoothSolver:  Solving for nuTilda, Initial residual = 0.0343571, Final residual = 7.25549e-13, No Iterations 70
ExecutionTime = 15.66 s  ClockTime = 16 s

forceCoeffs forceCoeffs write:
    Coefficient	Total	Pressure	Viscous	Internal
    Cd:	0.00154552	0.00149702	4.84976e-05	0
    Cd(f):	0.000740676	0.000717152	2.35244e-05	0
    Cd(r):	0.00080484	0.000779867	2.49732e-05	0
    Cl:	6.41639e-05	6.2715e-05	1.44886e-06	0
    Cl(f):	3.20777e-05	3.13575e-05	7.20132e-07	0
    Cl(r):	3.20863e-05	3.13575e-05	7.28731e-07	0
    CmPitch:	-4.29909e-09	2.11299e-18	-4.29909e-09	0
    CmRoll:	-3.2082e-05	-3.13575e-05	-7.24431e-07	0
    CmYaw:	0.000772758	0.000748509	2.42488e-05	0
    Cs:	-5.57342e-23	-4.33689e-23	-1.23653e-23	0
    Cs(f):	0.000772758	0.000748509	2.42488e-05	0
    Cs(r):	-0.000772758	-0.000748509	-2.42488e-05	0

    writing force and moment coefficient files.

Time = 15

smoothSolver:  Solving for Ux, Initial residual = 0.0240178, Final residual = 7.31594e-13, No Iterations 70
smoothSolver:  Solving for Uy, Initial residual = 0.0664966, Final residual = 9.51849e-13, No Iterations 71
GAMG:  Solving for p, Initial residual = 0.0138317, Final residual = 6.60651e-13, No Iterations 41
time step continuity errors : sum local = 4.39383e-14, global = -1.45213e-15, cumulative = -2.44714e-14
smoothSolver:  Solving for nuTilda, Initial residual = 0.0334687, Final residual = 8.02785e-13, No Iterations 70
ExecutionTime = 16.33 s  ClockTime = 16 s

forceCoeffs forceCoeffs write:
    Coefficient	Total	Pressure	Viscous	Internal
    Cd:	0.00160264	0.00155279	4.9847e-05	0
    Cd(f):	0.000768227	0.000744107	2.412e-05	0
    Cd(r):	0.000834414	0.000808687	2.5727e-05	0
    Cl:	6.61866e-05	6.45796e-05	1.60696e-06	0
    Cl(f):	3.3091e-05	3.22898e-05	8.01212e-07	0
    Cl(r):	3.30956e-05	3.22898e-05	8.05752e-07	0
    CmPitch:	-2.27002e-09	-2.19129e-16	-2.27002e-09	0
    CmRoll:	-3.30933e-05	-3.22898e-05	-8.03482e-07	0
    CmYaw:	0.000801321	0.000776397	2.49235e-05	0
    Cs:	-5.29803e-23	-4.27007e-23	-1.02796e-23	0
    Cs(f):	0.000801321	0.000776397	2.49235e-05	0
    Cs(r):	-0.000801321	-0.000776397	-2.49235e-05	0

    writing force and moment coefficient files.

Time = 16

smoothSolver:  Solving for Ux, Initial residual = 0.0245033, Final residual = 9.33368e-13, No Iterations 69
smoothSolver:  Solving for Uy, Initial residual = 0.0620963, Final residual = 8.88405e-13, No Iterations 71
GAMG:  Solving for p, Initial residual = 0.0135917, Final residual = 7.48926e-13, No Iterations 41
time step continuity errors : sum local = 4.87966e-14, global = -1.5547e-15, cumulative = -2.60261e-14
smoothSolver:  Solving for nuTilda, Initial residual = 0.0330547, Final residual = 8.88194e-13, No Iterations 70
ExecutionTime = 16.97 s  ClockTime = 17 s

forceCoeffs forceCoeffs write:
    Coefficient	Total	Pressure	Viscous	Internal
    Cd:	0.00165574	0.00160418	5.15605e-05	0
    Cd(f):	0.000794777	0.000769836	2.49409e-05	0
    Cd(r):	0.00086096	0.000834341	2.66196e-05	0
    Cl:	6.61832e-05	6.45045e-05	1.6787e-06	0
    Cl(f):	3.31072e-05	3.22522e-05	8.54964e-07	0
    Cl(r):	3.3076e-05	3.22522e-05	8.23735e-07	0
    CmPitch:	1.56145e-08	-4.21509e-16	1.56145e-08	0
    CmRoll:	-3.30916e-05	-3.22522e-05	-8.3935e-07	0
    CmYaw:	0.000827869	0.000802088	2.57802e-05	0
    Cs:	-5.01983e-23	-4.18485e-23	-8.3498e-24	0
    Cs(f):	0.000827869	0.000802088	2.57802e-05	0
    Cs(r):	-0.000827869	-0.000802088	-2.57802e-05	0

    writing force and moment coefficient files.

Time = 17

smoothSolver:  Solving for Ux, Initial residual = 0.0250066, Final residual = 8.7359e-13, No Iterations 69
smoothSolver:  Solving for Uy, Initial residual = 0.0576496, Final residual = 8.14441e-13, No Iterations 71
GAMG:  Solving for p, Initial residual = 0.0136228, Final residual = 8.21134e-13, No Iterations 39
time step continuity errors : sum local = 5.14826e-14, global = 3.30662e-15, cumulative = -2.27195e-14
smoothSolver:  Solving for nuTilda, Initial residual = 0.0330808, Final residual = 9.71571e-13, No Iterations 70
ExecutionTime = 17.58 s  ClockTime = 18 s

forceCoeffs forceCoeffs write:
    Coefficient	Total	Pressure	Viscous	Internal
    Cd:	0.00169709	0.00164433	5.27687e-05	0
    Cd(f):	0.000815607	0.000790087	2.55194e-05	0
    Cd(r):	0.000881487	0.000854238	2.72493e-05	0
    Cl:	6.58802e-05	6.41502e-05	1.72997e-06	0
    Cl(f):	3.29736e-05	3.20751e-05	8.98522e-07	0
    Cl(r):	3.29066e-05	3.20751e-05	8.31448e-07	0
    CmPitch:	3.35373e-08	-6.01727e-16	3.35373e-08	0
    CmRoll:	-3.29401e-05	-3.20751e-05	-8.64985e-07	0
    CmYaw:	0.000848547	0.000822163	2.63844e-05	0
    Cs:	-4.71754e-23	-4.07229e-23	-6.45242e-24	0
    Cs(f):	0.000848547	0.000822163	2.63844e-05	0
    Cs(r):	-0.000848547	-0.000822163	-2.63844e-05	0

    writing force and moment coefficient files.

Time = 18

smoothSolver:  Solving for Ux, Initial residual = 0.0253835, Final residual = 8.39817e-13, No Iterations 69
smoothSolver:  Solving for Uy, Initial residual = 0.0536356, Final residual = 7.39386e-13, No Iterations 71
GAMG:  Solving for p, Initial residual = 0.0138781, Final residual = 7.79951e-13, No Iterations 40
time step continuity errors : sum local = 4.64729e-14, global = 1.16163e-15, cumulative = -2.15579e-14
smoothSolver:  Solving for nuTilda, Initial residual = 0.0331642, Final residual = 7.44285e-13, No Iterations 71
ExecutionTime = 18.23 s  ClockTime = 18 s

forceCoeffs forceCoeffs write:
    Coefficient	Total	Pressure	Viscous	Internal
    Cd:	0.00172204	0.00166815	5.3888e-05	0
    Cd(f):	0.000828337	0.000802265	2.60717e-05	0
    Cd(r):	0.000893699	0.000865883	2.78163e-05	0
    Cl:	6.53621e-05	6.36175e-05	1.7446e-06	0
    Cl(f):	3.27344e-05	3.18087e-05	9.2563e-07	0
    Cl(r):	3.26277e-05	3.18087e-05	8.18968e-07	0
    CmPitch:	5.33311e-08	-6.61923e-16	5.33311e-08	0
    CmRoll:	-3.2681e-05	-3.18087e-05	-8.72299e-07	0
    CmYaw:	0.000861018	0.000834074	2.6944e-05	0
    Cs:	-4.43312e-23	-3.93613e-23	-4.9699e-24	0
    Cs(f):	0.000861018	0.000834074	2.6944e-05	0
    Cs(r):	-0.000861018	-0.000834074	-2.6944e-05	0

    writing force and moment coefficient files.

Time = 19

smoothSolver:  Solving for Ux, Initial residual = 0.025591, Final residual = 8.14123e-13, No Iterations 69
smoothSolver:  Solving for Uy, Initial residual = 0.0501027, Final residual = 9.41841e-13, No Iterations 70
GAMG:  Solving for p, Initial residual = 0.014313, Final residual = 7.61902e-13, No Iterations 40
time step continuity errors : sum local = 4.27571e-14, global = 2.4825e-15, cumulative = -1.90754e-14
smoothSolver:  Solving for nuTilda, Initial residual = 0.0330622, Final residual = 7.9057e-13, No Iterations 71
ExecutionTime = 18.86 s  ClockTime = 19 s

forceCoeffs forceCoeffs write:
    Coefficient	Total	Pressure	Viscous	Internal
    Cd:	0.00172986	0.00167494	5.49255e-05	0
    Cd(f):	0.000833532	0.000806906	2.66259e-05	0
    Cd(r):	0.000896331	0.000868032	2.82995e-05	0
    Cl:	6.27992e-05	6.11256e-05	1.67363e-06	0
    Cl(f):	3.1471e-05	3.05628e-05	9.08238e-07	0
    Cl(r):	3.13282e-05	3.05628e-05	7.65389e-07	0
    CmPitch:	7.14249e-08	-6.72108e-16	7.14249e-08	0
    CmRoll:	-3.13996e-05	-3.05628e-05	-8.36813e-07	0
    CmYaw:	0.000864932	0.000837469	2.74627e-05	0
    Cs:	-4.1707e-23	-3.79213e-23	-3.78567e-24	0
    Cs(f):	0.000864932	0.000837469	2.74627e-05	0
    Cs(r):	-0.000864932	-0.000837469	-2.74627e-05	0

    writing force and moment coefficient files.

Time = 20

smoothSolver:  Solving for Ux, Initial residual = 0.0255781, Final residual = 7.85736e-13, No Iterations 69
smoothSolver:  Solving for Uy, Initial residual = 0.0471554, Final residual = 8.60179e-13, No Iterations 70
GAMG:  Solving for p, Initial residual = 0.0148661, Final residual = 6.79426e-13, No Iterations 40
time step continuity errors : sum local = 3.56681e-14, global = 2.74206e-15, cumulative = -1.63333e-14
smoothSolver:  Solving for nuTilda, Initial residual = 0.0325237, Final residual = 8.34865e-13, No Iterations 71
ExecutionTime = 19.48 s  ClockTime = 19 s

forceCoeffs forceCoeffs write:
    Coefficient	Total	Pressure	Viscous	Internal
    Cd:	0.00172191	0.00166593	5.59802e-05	0
    Cd(f):	0.000832487	0.000805267	2.72207e-05	0
    Cd(r):	0.000889424	0.000860665	2.87594e-05	0
    Cl:	5.69366e-05	5.53979e-05	1.53871e-06	0
    Cl(f):	2.85816e-05	2.7699e-05	8.82602e-07	0
    Cl(r):	2.83551e-05	2.7699e-05	6.56112e-07	0
    CmPitch:	1.13245e-07	-6.31996e-16	1.13245e-07	0
    CmRoll:	-2.84683e-05	-2.7699e-05	-7.69357e-07	0
    CmYaw:	0.000860956	0.000832966	2.79901e-05	0
    Cs:	-3.9161e-23	-3.65142e-23	-2.64676e-24	0
    Cs(f):	0.000860956	0.000832966	2.79901e-05	0
    Cs(r):	-0.000860956	-0.000832966	-2.79901e-05	0

    writing force and moment coefficient files.

Time = 21

smoothSolver:  Solving for Ux, Initial residual = 0.0253577, Final residual = 7.57093e-13, No Iterations 69
smoothSolver:  Solving for Uy, Initial residual = 0.0448542, Final residual = 8.10582e-13, No Iterations 70
GAMG:  Solving for p, Initial residual = 0.0154968, Final residual = 7.11071e-13, No Iterations 40
time step continuity errors : sum local = 3.4773e-14, global = 8.89425e-16, cumulative = -1.54439e-14
smoothSolver:  Solving for nuTilda, Initial residual = 0.0317264, Final residual = 8.77134e-13, No Iterations 71
ExecutionTime = 20.07 s  ClockTime = 20 s

forceCoeffs forceCoeffs write:
    Coefficient	Total	Pressure	Viscous	Internal
    Cd:	0.00170257	0.00164603	5.65417e-05	0
    Cd(f):	0.000827234	0.000799667	2.75663e-05	0
    Cd(r):	0.000875335	0.00084636	2.89754e-05	0
    Cl:	4.81016e-05	4.66925e-05	1.40908e-06	0
    Cl(f):	2.42054e-05	2.33463e-05	8.59148e-07	0
    Cl(r):	2.38962e-05	2.33463e-05	5.49928e-07	0
    CmPitch:	1.5461e-07	-5.86338e-16	1.5461e-07	0
    CmRoll:	-2.40508e-05	-2.33463e-05	-7.04538e-07	0
    CmYaw:	0.000851285	0.000823014	2.82709e-05	0
    Cs:	-3.67494e-23	-3.51218e-23	-1.62763e-24	0
    Cs(f):	0.000851285	0.000823014	2.82709e-05	0
    Cs(r):	-0.000851285	-0.000823014	-2.82709e-05	0

    writing force and moment coefficient files.

Time = 22

smoothSolver:  Solving for Ux, Initial residual = 0.0249521, Final residual = 7.27016e-13, No Iterations 69
smoothSolver:  Solving for Uy, Initial residual = 0.0432803, Final residual = 7.87595e-13, No Iterations 70
GAMG:  Solving for p, Initial residual = 0.0161965, Final residual = 9.27065e-13, No Iterations 40
time step continuity errors : sum local = 4.2091e-14, global = -8.40591e-16, cumulative = -1.62845e-14
smoothSolver:  Solving for nuTilda, Initial residual = 0.0308571, Final residual = 9.13524e-13, No Iterations 71
ExecutionTime = 20.69 s  ClockTime = 21 s

forceCoeffs forceCoeffs write:
    Coefficient	Total	Pressure	Viscous	Internal
    Cd:	0.00167595	0.0016193	5.66483e-05	0
    Cd(f):	0.000819717	0.000792034	2.76828e-05	0
    Cd(r):	0.000856229	0.000827263	2.89655e-05	0
    Cl:	3.6512e-05	3.52292e-05	1.28272e-06	0
    Cl(f):	1.84292e-05	1.76146e-05	8.14616e-07	0
    Cl(r):	1.80827e-05	1.76146e-05	4.68108e-07	0
    CmPitch:	1.73254e-07	-4.6619e-16	1.73254e-07	0
    CmRoll:	-1.8256e-05	-1.76146e-05	-6.41362e-07	0
    CmYaw:	0.000837973	0.000809649	2.83242e-05	0
    Cs:	-3.45186e-23	-3.37786e-23	-7.40055e-25	0
    Cs(f):	0.000837973	0.000809649	2.83242e-05	0
    Cs(r):	-0.000837973	-0.000809649	-2.83242e-05	0

    writing force and moment coefficient files.

Time = 23

smoothSolver:  Solving for Ux, Initial residual = 0.0243779, Final residual = 9.75543e-13, No Iterations 68
smoothSolver:  Solving for Uy, Initial residual = 0.0423029, Final residual = 7.82985e-13, No Iterations 70
GAMG:  Solving for p, Initial residual = 0.0168773, Final residual = 5.02863e-13, No Iterations 41
time step continuity errors : sum local = 2.11753e-14, global = 1.6847e-15, cumulative = -1.45998e-14
smoothSolver:  Solving for nuTilda, Initial residual = 0.0299329, Final residual = 9.49055e-13, No Iterations 71
ExecutionTime = 21.31 s  ClockTime = 21 s

forceCoeffs forceCoeffs write:
    Coefficient	Total	Pressure	Viscous	Internal
    Cd:	0.00164708	0.00159072	5.63617e-05	0
    Cd(f):	0.000811502	0.000783888	2.76141e-05	0
    Cd(r):	0.00083558	0.000806832	2.87477e-05	0
    Cl:	2.40779e-05	2.29442e-05	1.13363e-06	0
    Cl(f):	1.22174e-05	1.14721e-05	7.45283e-07	0
    Cl(r):	1.18605e-05	1.14721e-05	3.8835e-07	0
    CmPitch:	1.78466e-07	-2.60876e-16	1.78466e-07	0
    CmRoll:	-1.20389e-05	-1.14721e-05	-5.66817e-07	0
    CmYaw:	0.000823541	0.00079536	2.81809e-05	0
    Cs:	-3.23276e-23	-3.2463e-23	1.35436e-25	0
    Cs(f):	0.000823541	0.00079536	2.81809e-05	0
    Cs(r):	-0.000823541	-0.00079536	-2.81809e-05	0

    writing force and moment coefficient files.

Time = 24

smoothSolver:  Solving for Ux, Initial residual = 0.0236727, Final residual = 9.3406e-13, No Iterations 68
smoothSolver:  Solving for Uy, Initial residual = 0.0417914, Final residual = 7.91719e-13, No Iterations 70
GAMG:  Solving for p, Initial residual = 0.0175599, Final residual = 5.38836e-13, No Iterations 41
time step continuity errors : sum local = 2.10213e-14, global = 1.65613e-15, cumulative = -1.29436e-14
smoothSolver:  Solving for nuTilda, Initial residual = 0.0291602, Final residual = 9.85542e-13, No Iterations 71
ExecutionTime = 21.92 s  ClockTime = 22 s

forceCoeffs forceCoeffs write:
    Coefficient	Total	Pressure	Viscous	Internal
    Cd:	0.00161891	0.00156309	5.58175e-05	0
    Cd(f):	0.000803364	0.000775934	2.74293e-05	0
    Cd(r):	0.000815546	0.000787157	2.83882e-05	0
    Cl:	1.21818e-05	1.12229e-05	9.58886e-07	0
    Cl(f):	6.26275e-06	5.61147e-06	6.51275e-07	0
    Cl(r):	5.91908e-06	5.61147e-06	3.0761e-07	0
    CmPitch:	1.71833e-07	3.77174e-18	1.71833e-07	0
    CmRoll:	-6.09092e-06	-5.61147e-06	-4.79443e-07	0
    CmYaw:	0.000809455	0.000781546	2.79088e-05	0
    Cs:	-3.02342e-23	-3.11773e-23	9.43047e-25	0
    Cs(f):	0.000809455	0.000781546	2.79088e-05	0
    Cs(r):	-0.000809455	-0.000781546	-2.79088e-05	0

    writing force and moment coefficient files.

Time = 25

smoothSolver:  Solving for Ux, Initial residual = 0.0228808, Final residual = 8.94962e-13, No Iterations 68
smoothSolver:  Solving for Uy, Initial residual = 0.0415425, Final residual = 8.03503e-13, No Iterations 70
GAMG:  Solving for p, Initial residual = 0.0181906, Final residual = 5.44241e-13, No Iterations 41
time step continuity errors : sum local = 1.96973e-14, global = 1.53383e-15, cumulative = -1.14098e-14
smoothSolver:  Solving for nuTilda, Initial residual = 0.0286199, Final residual = 7.41977e-13, No Iterations 72
ExecutionTime = 22.54 s  ClockTime = 23 s

forceCoeffs forceCoeffs write:
    Coefficient	Total	Pressure	Viscous	Internal
    Cd:	0.00159395	0.00153883	5.5121e-05	0
    Cd(f):	0.000796287	0.000769097	2.71897e-05	0
    Cd(r):	0.000797659	0.000769728	2.79313e-05	0
    Cl:	1.37215e-06	6.30569e-07	7.4158e-07	0
    Cl(f):	8.41734e-07	3.15284e-07	5.26449e-07	0
    Cl(r):	5.30415e-07	3.15284e-07	2.15131e-07	0
    CmPitch:	1.55659e-07	2.9268e-16	1.55659e-07	0
    CmRoll:	-6.86075e-07	-3.15284e-07	-3.7079e-07	0
    CmYaw:	0.000796973	0.000769413	2.75605e-05	0
    Cs:	-2.81501e-23	-2.99498e-23	1.7997e-24	0
    Cs(f):	0.000796973	0.000769413	2.75605e-05	0
    Cs(r):	-0.000796973	-0.000769413	-2.75605e-05	0

    writing force and moment coefficient files.

Time = 26

smoothSolver:  Solving for Ux, Initial residual = 0.0220308, Final residual = 8.55725e-13, No Iterations 68
smoothSolver:  Solving for Uy, Initial residual = 0.0412811, Final residual = 8.10808e-13, No Iterations 70
GAMG:  Solving for p, Initial residual = 0.0187276, Final residual = 5.40089e-13, No Iterations 41
time step continuity errors : sum local = 1.81849e-14, global = 1.39468e-15, cumulative = -1.00151e-14
smoothSolver:  Solving for nuTilda, Initial residual = 0.0281124, Final residual = 7.76786e-13, No Iterations 72
ExecutionTime = 23.15 s  ClockTime = 23 s

forceCoeffs forceCoeffs write:
    Coefficient	Total	Pressure	Viscous	Internal
    Cd:	0.00157371	0.00151927	5.44318e-05	0
    Cd(f):	0.000790892	0.00076392	2.69719e-05	0
    Cd(r):	0.000782814	0.000755354	2.74598e-05	0
    Cl:	-8.07755e-06	-8.56541e-06	4.87857e-07	0
    Cl(f):	-3.89469e-06	-4.2827e-06	3.88018e-07	0
    Cl(r):	-4.18286e-06	-4.2827e-06	9.98389e-08	0
    CmPitch:	1.44089e-07	5.64803e-16	1.44089e-07	0
    CmRoll:	4.03878e-06	4.2827e-06	-2.43928e-07	0
    CmYaw:	0.000786853	0.000759637	2.72159e-05	0
    Cs:	-2.60858e-23	-2.88141e-23	2.72835e-24	0
    Cs(f):	0.000786853	0.000759637	2.72159e-05	0
    Cs(r):	-0.000786853	-0.000759637	-2.72159e-05	0

    writing force and moment coefficient files.

Time = 27

smoothSolver:  Solving for Ux, Initial residual = 0.0211598, Final residual = 8.17461e-13, No Iterations 68
smoothSolver:  Solving for Uy, Initial residual = 0.0408016, Final residual = 8.17758e-13, No Iterations 70
GAMG:  Solving for p, Initial residual = 0.0191703, Final residual = 5.41883e-13, No Iterations 41
time step continuity errors : sum local = 1.7019e-14, global = 1.28719e-15, cumulative = -8.72792e-15
smoothSolver:  Solving for nuTilda, Initial residual = 0.0275647, Final residual = 8.22493e-13, No Iterations 72
ExecutionTime = 23.81 s  ClockTime = 24 s

forceCoeffs forceCoeffs write:
    Coefficient	Total	Pressure	Viscous	Internal
    Cd:	0.00155845	0.00150461	5.38435e-05	0
    Cd(f):	0.000787555	0.000760751	2.68042e-05	0
    Cd(r):	0.000770896	0.000743857	2.70392e-05	0
    Cl:	-1.66587e-05	-1.68937e-05	2.34961e-07	0
    Cl(f):	-8.19415e-06	-8.44685e-06	2.52696e-07	0
    Cl(r):	-8.46458e-06	-8.44685e-06	-1.77356e-08	0
    CmPitch:	1.35216e-07	7.88025e-16	1.35216e-07	0
    CmRoll:	8.32937e-06	8.44685e-06	-1.1748e-07	0
    CmYaw:	0.000779226	0.000752304	2.69217e-05	0
    Cs:	-2.4143e-23	-2.78064e-23	3.6634e-24	0
    Cs(f):	0.000779226	0.000752304	2.69217e-05	0
    Cs(r):	-0.000779226	-0.000752304	-2.69217e-05	0

    writing force and moment coefficient files.

Time = 28

smoothSolver:  Solving for Ux, Initial residual = 0.0202779, Final residual = 7.85508e-13, No Iterations 68
smoothSolver:  Solving for Uy, Initial residual = 0.0400802, Final residual = 8.42591e-13, No Iterations 70
GAMG:  Solving for p, Initial residual = 0.0195032, Final residual = 5.50074e-13, No Iterations 41
time step continuity errors : sum local = 1.61781e-14, global = 1.21531e-15, cumulative = -7.51261e-15
smoothSolver:  Solving for nuTilda, Initial residual = 0.026986, Final residual = 8.7274e-13, No Iterations 72
ExecutionTime = 24.43 s  ClockTime = 24 s

forceCoeffs forceCoeffs write:
    Coefficient	Total	Pressure	Viscous	Internal
    Cd:	0.001548	0.00149461	5.33819e-05	0
    Cd(f):	0.000786311	0.000759612	2.66989e-05	0
    Cd(r):	0.000761685	0.000735002	2.6683e-05	0
    Cl:	-2.46266e-05	-2.46106e-05	-1.59585e-08	0
    Cl(f):	-1.21866e-05	-1.23053e-05	1.18741e-07	0
    Cl(r):	-1.244e-05	-1.23053e-05	-1.34699e-07	0
    CmPitch:	1.2672e-07	9.42647e-16	1.2672e-07	0
    CmRoll:	1.23133e-05	1.23053e-05	7.97923e-09	0
    CmYaw:	0.000773998	0.000747307	2.66909e-05	0
    Cs:	-2.24057e-23	-2.69378e-23	4.53208e-24	0
    Cs(f):	0.000773998	0.000747307	2.66909e-05	0
    Cs(r):	-0.000773998	-0.000747307	-2.66909e-05	0

    writing force and moment coefficient files.

Time = 29

smoothSolver:  Solving for Ux, Initial residual = 0.0194001, Final residual = 7.53249e-13, No Iterations 68
smoothSolver:  Solving for Uy, Initial residual = 0.0390961, Final residual = 8.69312e-13, No Iterations 70
GAMG:  Solving for p, Initial residual = 0.0197503, Final residual = 5.69268e-13, No Iterations 41
time step continuity errors : sum local = 1.57366e-14, global = 1.18166e-15, cumulative = -6.33094e-15
smoothSolver:  Solving for nuTilda, Initial residual = 0.0263461, Final residual = 9.30392e-13, No Iterations 72
ExecutionTime = 25.04 s  ClockTime = 25 s

forceCoeffs forceCoeffs write:
    Coefficient	Total	Pressure	Viscous	Internal
    Cd:	0.00154159	0.00148855	5.30397e-05	0
    Cd(f):	0.000786855	0.000760206	2.66497e-05	0
    Cd(r):	0.000754736	0.000728346	2.63901e-05	0
    Cl:	-3.2119e-05	-3.18593e-05	-2.59637e-07	0
    Cl(f):	-1.5939e-05	-1.59297e-05	-9.33485e-09	0
    Cl(r):	-1.618e-05	-1.59297e-05	-2.50302e-07	0
    CmPitch:	1.20484e-07	1.00815e-15	1.20484e-07	0
    CmRoll:	1.60595e-05	1.59297e-05	1.29819e-07	0
    CmYaw:	0.000770796	0.000744276	2.65199e-05	0
    Cs:	-2.08385e-23	-2.62009e-23	5.3624e-24	0
    Cs(f):	0.000770796	0.000744276	2.65199e-05	0
    Cs(r):	-0.000770796	-0.000744276	-2.65199e-05	0

    writing force and moment coefficient files.

Time = 30

smoothSolver:  Solving for Ux, Initial residual = 0.0185508, Final residual = 7.24515e-13, No Iterations 68
smoothSolver:  Solving for Uy, Initial residual = 0.0379494, Final residual = 9.08383e-13, No Iterations 70
GAMG:  Solving for p, Initial residual = 0.019944, Final residual = 5.75466e-13, No Iterations 41
time step continuity errors : sum local = 1.50158e-14, global = 1.15079e-15, cumulative = -5.18016e-15
smoothSolver:  Solving for nuTilda, Initial residual = 0.0256576, Final residual = 9.92125e-13, No Iterations 72
ExecutionTime = 25.72 s  ClockTime = 26 s

forceCoeffs forceCoeffs write:
    Coefficient	Total	Pressure	Viscous	Internal
    Cd:	0.00153823	0.00148544	5.27928e-05	0
    Cd(f):	0.000788633	0.00076199	2.66432e-05	0
    Cd(r):	0.000749596	0.000723446	2.61496e-05	0
    Cl:	-3.90376e-05	-3.8544e-05	-4.93581e-07	0
    Cl(f):	-1.94016e-05	-1.9272e-05	-1.29582e-07	0
    Cl(r):	-1.9636e-05	-1.9272e-05	-3.64e-07	0
    CmPitch:	1.17209e-07	9.75305e-16	1.17209e-07	0
    CmRoll:	1.95188e-05	1.9272e-05	2.46791e-07	0
    CmYaw:	0.000769115	0.000742718	2.63964e-05	0
    Cs:	-1.94582e-23	-2.55656e-23	6.1074e-24	0
    Cs(f):	0.000769115	0.000742718	2.63964e-05	0
    Cs(r):	-0.000769115	-0.000742718	-2.63964e-05	0

    writing force and moment coefficient files.

Time = 31

smoothSolver:  Solving for Ux, Initial residual = 0.0177468, Final residual = 9.81262e-13, No Iterations 67
smoothSolver:  Solving for Uy, Initial residual = 0.0366867, Final residual = 9.5326e-13, No Iterations 70
GAMG:  Solving for p, Initial residual = 0.0200942, Final residual = 5.6175e-13, No Iterations 41
time step continuity errors : sum local = 1.38794e-14, global = 1.10222e-15, cumulative = -4.07794e-15
smoothSolver:  Solving for nuTilda, Initial residual = 0.0249626, Final residual = 7.66358e-13, No Iterations 73
ExecutionTime = 26.39 s  ClockTime = 26 s

forceCoeffs forceCoeffs write:
    Coefficient	Total	Pressure	Viscous	Internal
    Cd:	0.00153663	0.00148401	5.26183e-05	0
    Cd(f):	0.000790997	0.00076433	2.66665e-05	0
    Cd(r):	0.000745634	0.000719683	2.59518e-05	0
    Cl:	-4.53625e-05	-4.46479e-05	-7.14647e-07	0
    Cl(f):	-2.2566e-05	-2.23239e-05	-2.42058e-07	0
    Cl(r):	-2.27965e-05	-2.23239e-05	-4.72588e-07	0
    CmPitch:	1.15265e-07	8.51882e-16	1.15265e-07	0
    CmRoll:	2.26813e-05	2.23239e-05	3.57323e-07	0
    CmYaw:	0.000768316	0.000742006	2.63092e-05	0
    Cs:	-1.82996e-23	-2.50036e-23	6.704e-24	0
    Cs(f):	0.000768316	0.000742006	2.63092e-05	0
    Cs(r):	-0.000768316	-0.000742006	-2.63092e-05	0

    writing force and moment coefficient files.

Time = 32

smoothSolver:  Solving for Ux, Initial residual = 0.0169904, Final residual = 9.38715e-13, No Iterations 67
smoothSolver:  Solving for Uy, Initial residual = 0.0353736, Final residual = 9.9077e-13, No Iterations 70
GAMG:  Solving for p, Initial residual = 0.0201473, Final residual = 5.45437e-13, No Iterations 41
time step continuity errors : sum local = 1.2804e-14, global = 1.04159e-15, cumulative = -3.03635e-15
smoothSolver:  Solving for nuTilda, Initial residual = 0.0242799, Final residual = 8.07941e-13, No Iterations 73
ExecutionTime = 27.18 s  ClockTime = 27 s

forceCoeffs forceCoeffs write:
    Coefficient	Total	Pressure	Viscous	Internal
    Cd:	0.00153536	0.00148285	5.25086e-05	0
    Cd(f):	0.000793244	0.000766532	2.6712e-05	0
    Cd(r):	0.000742118	0.000716321	2.57966e-05	0
    Cl:	-5.1126e-05	-5.02106e-05	-9.15338e-07	0
    Cl(f):	-2.54532e-05	-2.51053e-05	-3.47861e-07	0
    Cl(r):	-2.56728e-05	-2.51053e-05	-5.67477e-07	0
    CmPitch:	1.09808e-07	6.66437e-16	1.09808e-07	0
    CmRoll:	2.5563e-05	2.51053e-05	4.57669e-07	0
    CmYaw:	0.000767681	0.000741426	2.62543e-05	0
    Cs:	-1.73442e-23	-2.44891e-23	7.14488e-24	0
    Cs(f):	0.000767681	0.000741426	2.62543e-05	0
    Cs(r):	-0.000767681	-0.000741426	-2.62543e-05	0

    writing force and moment coefficient files.

Time = 33

smoothSolver:  Solving for Ux, Initial residual = 0.0162787, Final residual = 8.941e-13, No Iterations 67
smoothSolver:  Solving for Uy, Initial residual = 0.0340049, Final residual = 7.29701e-13, No Iterations 71
GAMG:  Solving for p, Initial residual = 0.0201252, Final residual = 5.67916e-13, No Iterations 41
time step continuity errors : sum local = 1.27006e-14, global = 1.01571e-15, cumulative = -2.02064e-15
smoothSolver:  Solving for nuTilda, Initial residual = 0.0236779, Final residual = 8.47796e-13, No Iterations 73
ExecutionTime = 27.78 s  ClockTime = 28 s

forceCoeffs forceCoeffs write:
    Coefficient	Total	Pressure	Viscous	Internal
    Cd:	0.00153308	0.00148064	5.24414e-05	0
    Cd(f):	0.000794758	0.000767995	2.6763e-05	0
    Cd(r):	0.000738322	0.000712643	2.56784e-05	0
    Cl:	-5.64368e-05	-5.53523e-05	-1.08453e-06	0
    Cl(f):	-2.81211e-05	-2.76762e-05	-4.44939e-07	0
    Cl(r):	-2.83157e-05	-2.76762e-05	-6.39588e-07	0
    CmPitch:	9.73245e-08	4.61346e-16	9.73245e-08	0
    CmRoll:	2.82184e-05	2.76762e-05	5.42264e-07	0
    CmYaw:	0.00076654	0.000740319	2.62207e-05	0
    Cs:	-1.65375e-23	-2.40052e-23	7.46769e-24	0
    Cs(f):	0.00076654	0.000740319	2.62207e-05	0
    Cs(r):	-0.00076654	-0.000740319	-2.62207e-05	0

    writing force and moment coefficient files.

Time = 34

smoothSolver:  Solving for Ux, Initial residual = 0.0156128, Final residual = 8.50758e-13, No Iterations 67
smoothSolver:  Solving for Uy, Initial residual = 0.0325891, Final residual = 7.39835e-13, No Iterations 71
GAMG:  Solving for p, Initial residual = 0.0200811, Final residual = 6.0698e-13, No Iterations 41
time step continuity errors : sum local = 1.29654e-14, global = 1.01299e-15, cumulative = -1.00764e-15
smoothSolver:  Solving for nuTilda, Initial residual = 0.0230678, Final residual = 8.8824e-13, No Iterations 73
ExecutionTime = 28.38 s  ClockTime = 28 s

forceCoeffs forceCoeffs write:
    Coefficient	Total	Pressure	Viscous	Internal
    Cd:	0.00152884	0.00147647	5.2368e-05	0
    Cd(f):	0.000795049	0.000768253	2.67953e-05	0
    Cd(r):	0.000733788	0.000708215	2.55727e-05	0
    Cl:	-6.1261e-05	-6.00383e-05	-1.22268e-06	0
    Cl(f):	-3.0551e-05	-3.00192e-05	-5.31798e-07	0
    Cl(r):	-3.071e-05	-3.00192e-05	-6.90885e-07	0
    CmPitch:	7.95435e-08	2.74868e-16	7.95435e-08	0
    CmRoll:	3.06305e-05	3.00192e-05	6.11341e-07	0
    CmYaw:	0.000764418	0.000738234	2.6184e-05	0
    Cs:	-1.59057e-23	-2.35408e-23	7.63512e-24	0
    Cs(f):	0.000764418	0.000738234	2.6184e-05	0
    Cs(r):	-0.000764418	-0.000738234	-2.6184e-05	0

    writing force and moment coefficient files.

Time = 35

smoothSolver:  Solving for Ux, Initial residual = 0.0149906, Final residual = 8.10661e-13, No Iterations 67
smoothSolver:  Solving for Uy, Initial residual = 0.0311439, Final residual = 7.44916e-13, No Iterations 71
GAMG:  Solving for p, Initial residual = 0.02003, Final residual = 6.43577e-13, No Iterations 41
time step continuity errors : sum local = 1.31673e-14, global = 1.01608e-15, cumulative = 8.43283e-18
smoothSolver:  Solving for nuTilda, Initial residual = 0.0224214, Final residual = 9.2817e-13, No Iterations 73
ExecutionTime = 28.99 s  ClockTime = 29 s

forceCoeffs forceCoeffs write:
    Coefficient	Total	Pressure	Viscous	Internal
    Cd:	0.00152224	0.00146999	5.22536e-05	0
    Cd(f):	0.000793882	0.000767084	2.67974e-05	0
    Cd(r):	0.000728362	0.000702905	2.54562e-05	0
    Cl:	-6.55202e-05	-6.41789e-05	-1.34127e-06	0
    Cl(f):	-3.26984e-05	-3.20895e-05	-6.08964e-07	0
    Cl(r):	-3.28218e-05	-3.20895e-05	-7.32309e-07	0
    CmPitch:	6.16726e-08	1.2606e-16	6.16726e-08	0
    CmRoll:	3.27601e-05	3.20895e-05	6.70637e-07	0
    CmYaw:	0.000761122	0.000734995	2.61268e-05	0
    Cs:	-1.54163e-23	-2.30929e-23	7.67655e-24	0
    Cs(f):	0.000761122	0.000734995	2.61268e-05	0
    Cs(r):	-0.000761122	-0.000734995	-2.61268e-05	0

    writing force and moment coefficient files.

Time = 36

smoothSolver:  Solving for Ux, Initial residual = 0.0144033, Final residual = 7.72126e-13, No Iterations 67
smoothSolver:  Solving for Uy, Initial residual = 0.0297177, Final residual = 7.43519e-13, No Iterations 71
GAMG:  Solving for p, Initial residual = 0.0198979, Final residual = 6.76642e-13, No Iterations 41
time step continuity errors : sum local = 1.32841e-14, global = 1.03139e-15, cumulative = 1.03983e-15
smoothSolver:  Solving for nuTilda, Initial residual = 0.0217906, Final residual = 9.67303e-13, No Iterations 73
ExecutionTime = 29.61 s  ClockTime = 30 s

forceCoeffs forceCoeffs write:
    Coefficient	Total	Pressure	Viscous	Internal
    Cd:	0.00151351	0.00146146	5.20517e-05	0
    Cd(f):	0.000791318	0.000764566	2.6752e-05	0
    Cd(r):	0.000722192	0.000696892	2.52996e-05	0
    Cl:	-6.91261e-05	-6.76737e-05	-1.4524e-06	0
    Cl(f):	-3.45089e-05	-3.38368e-05	-6.72089e-07	0
    Cl(r):	-3.46171e-05	-3.38368e-05	-7.80308e-07	0
    CmPitch:	5.41092e-08	2.18043e-17	5.41092e-08	0
    CmRoll:	3.4563e-05	3.38368e-05	7.26199e-07	0
    CmYaw:	0.000756755	0.000730729	2.60258e-05	0
    Cs:	-1.4974e-23	-2.26622e-23	7.68826e-24	0
    Cs(f):	0.000756755	0.000730729	2.60258e-05	0
    Cs(r):	-0.000756755	-0.000730729	-2.60258e-05	0

    writing force and moment coefficient files.

Time = 37

smoothSolver:  Solving for Ux, Initial residual = 0.0138587, Final residual = 7.35914e-13, No Iterations 67
smoothSolver:  Solving for Uy, Initial residual = 0.028369, Final residual = 7.36623e-13, No Iterations 71
GAMG:  Solving for p, Initial residual = 0.0196683, Final residual = 7.04483e-13, No Iterations 41
time step continuity errors : sum local = 1.33029e-14, global = 1.04904e-15, cumulative = 2.08887e-15
smoothSolver:  Solving for nuTilda, Initial residual = 0.0211772, Final residual = 7.33945e-13, No Iterations 74
ExecutionTime = 30.23 s  ClockTime = 30 s

forceCoeffs forceCoeffs write:
    Coefficient	Total	Pressure	Viscous	Internal
    Cd:	0.0015033	0.00145154	5.17592e-05	0
    Cd(f):	0.00078765	0.000760992	2.66586e-05	0
    Cd(r):	0.000715651	0.00069055	2.51006e-05	0
    Cl:	-7.19992e-05	-7.04413e-05	-1.55794e-06	0
    Cl(f):	-3.59398e-05	-3.52206e-05	-7.19155e-07	0
    Cl(r):	-3.60594e-05	-3.52206e-05	-8.38789e-07	0
    CmPitch:	5.9817e-08	-5.16121e-17	5.9817e-08	0
    CmRoll:	3.59996e-05	3.52206e-05	7.78972e-07	0
    CmYaw:	0.000751651	0.000725771	2.58796e-05	0
    Cs:	-1.46044e-23	-2.22568e-23	7.65236e-24	0
    Cs(f):	0.000751651	0.000725771	2.58796e-05	0
    Cs(r):	-0.000751651	-0.000725771	-2.58796e-05	0

    writing force and moment coefficient files.

Time = 38

smoothSolver:  Solving for Ux, Initial residual = 0.0133527, Final residual = 9.90828e-13, No Iterations 66
smoothSolver:  Solving for Uy, Initial residual = 0.0270931, Final residual = 7.24183e-13, No Iterations 71
GAMG:  Solving for p, Initial residual = 0.019381, Final residual = 7.26824e-13, No Iterations 41
time step continuity errors : sum local = 1.32259e-14, global = 1.07252e-15, cumulative = 3.16139e-15
smoothSolver:  Solving for nuTilda, Initial residual = 0.0205941, Final residual = 7.60106e-13, No Iterations 74
ExecutionTime = 30.86 s  ClockTime = 31 s

forceCoeffs forceCoeffs write:
    Coefficient	Total	Pressure	Viscous	Internal
    Cd:	0.00149253	0.00144111	5.14266e-05	0
    Cd(f):	0.000783363	0.000756823	2.65401e-05	0
    Cd(r):	0.000709171	0.000684284	2.48865e-05	0
    Cl:	-7.41924e-05	-7.25388e-05	-1.6536e-06	0
    Cl(f):	-3.70269e-05	-3.62694e-05	-7.57526e-07	0
    Cl(r):	-3.71655e-05	-3.62694e-05	-8.96078e-07	0
    CmPitch:	6.92756e-08	-1.07487e-16	6.92756e-08	0
    CmRoll:	3.70962e-05	3.62694e-05	8.26802e-07	0
    CmYaw:	0.000746267	0.000720554	2.57133e-05	0
    Cs:	-1.42861e-23	-2.18851e-23	7.599e-24	0
    Cs(f):	0.000746267	0.000720554	2.57133e-05	0
    Cs(r):	-0.000746267	-0.000720554	-2.57133e-05	0

    writing force and moment coefficient files.

Time = 39

smoothSolver:  Solving for Ux, Initial residual = 0.0128781, Final residual = 9.47214e-13, No Iterations 66
smoothSolver:  Solving for Uy, Initial residual = 0.0258805, Final residual = 9.80432e-13, No Iterations 70
GAMG:  Solving for p, Initial residual = 0.0190573, Final residual = 7.4662e-13, No Iterations 41
time step continuity errors : sum local = 1.31186e-14, global = 1.09708e-15, cumulative = 4.25847e-15
smoothSolver:  Solving for nuTilda, Initial residual = 0.0200864, Final residual = 7.85012e-13, No Iterations 74
ExecutionTime = 31.47 s  ClockTime = 31 s

forceCoeffs forceCoeffs write:
    Coefficient	Total	Pressure	Viscous	Internal
    Cd:	0.00148211	0.00143101	5.10999e-05	0
    Cd(f):	0.000778917	0.000752497	2.64199e-05	0
    Cd(r):	0.000703194	0.000678514	2.468e-05	0
    Cl:	-7.57228e-05	-7.39828e-05	-1.73996e-06	0
    Cl(f):	-3.77849e-05	-3.69914e-05	-7.93456e-07	0
    Cl(r):	-3.79379e-05	-3.69914e-05	-9.46506e-07	0
    CmPitch:	7.65247e-08	-1.53329e-16	7.65247e-08	0
    CmRoll:	3.78614e-05	3.69914e-05	8.69981e-07	0
    CmYaw:	0.000741056	0.000715506	2.555e-05	0
    Cs:	-1.39619e-23	-2.15516e-23	7.5897e-24	0
    Cs(f):	0.000741056	0.000715506	2.555e-05	0
    Cs(r):	-0.000741056	-0.000715506	-2.555e-05	0

    writing force and moment coefficient files.

Time = 40

smoothSolver:  Solving for Ux, Initial residual = 0.0124381, Final residual = 9.09797e-13, No Iterations 66
smoothSolver:  Solving for Uy, Initial residual = 0.0247191, Final residual = 9.5076e-13, No Iterations 70
GAMG:  Solving for p, Initial residual = 0.0187336, Final residual = 7.7062e-13, No Iterations 41
time step continuity errors : sum local = 1.30875e-14, global = 1.11545e-15, cumulative = 5.37392e-15
smoothSolver:  Solving for nuTilda, Initial residual = 0.0196152, Final residual = 8.08058e-13, No Iterations 74
ExecutionTime = 32.07 s  ClockTime = 32 s

forceCoeffs forceCoeffs write:
    Coefficient	Total	Pressure	Viscous	Internal
    Cd:	0.00147272	0.00142191	5.08107e-05	0
    Cd(f):	0.000774671	0.00074836	2.63109e-05	0
    Cd(r):	0.000698051	0.000673551	2.44998e-05	0
    Cl:	-7.66203e-05	-7.48091e-05	-1.81119e-06	0
    Cl(f):	-3.82313e-05	-3.74046e-05	-8.26775e-07	0
    Cl(r):	-3.8389e-05	-3.74046e-05	-9.84413e-07	0
    CmPitch:	7.88189e-08	-1.947e-16	7.88189e-08	0
    CmRoll:	3.83102e-05	3.74046e-05	9.05594e-07	0
    CmYaw:	0.000736361	0.000710955	2.54053e-05	0
    Cs:	-1.36571e-23	-2.12523e-23	7.59515e-24	0
    Cs(f):	0.000736361	0.000710955	2.54053e-05	0
    Cs(r):	-0.000736361	-0.000710955	-2.54053e-05	0

    writing force and moment coefficient files.

Time = 41

smoothSolver:  Solving for Ux, Initial residual = 0.0120273, Final residual = 8.80345e-13, No Iterations 66
smoothSolver:  Solving for Uy, Initial residual = 0.0236036, Final residual = 9.15873e-13, No Iterations 70
GAMG:  Solving for p, Initial residual = 0.0184304, Final residual = 8.0601e-13, No Iterations 41
time step continuity errors : sum local = 1.32507e-14, global = 1.13199e-15, cumulative = 6.50591e-15
smoothSolver:  Solving for nuTilda, Initial residual = 0.0191872, Final residual = 8.30405e-13, No Iterations 74
ExecutionTime = 32.69 s  ClockTime = 33 s

forceCoeffs forceCoeffs write:
    Coefficient	Total	Pressure	Viscous	Internal
    Cd:	0.00146461	0.00141405	5.05647e-05	0
    Cd(f):	0.000770754	0.00074454	2.6214e-05	0
    Cd(r):	0.000693858	0.000669507	2.43507e-05	0
    Cl:	-7.68959e-05	-7.50326e-05	-1.86329e-06	0
    Cl(f):	-3.83719e-05	-3.75163e-05	-8.55578e-07	0
    Cl(r):	-3.8524e-05	-3.75163e-05	-1.00771e-06	0
    CmPitch:	7.60658e-08	-2.36138e-16	7.60658e-08	0
    CmRoll:	3.84479e-05	3.75163e-05	9.31644e-07	0
    CmYaw:	0.000732306	0.000707023	2.52823e-05	0
    Cs:	-1.339e-23	-2.09776e-23	7.58759e-24	0
    Cs(f):	0.000732306	0.000707023	2.52823e-05	0
    Cs(r):	-0.000732306	-0.000707023	-2.52823e-05	0

    writing force and moment coefficient files.

Time = 42

smoothSolver:  Solving for Ux, Initial residual = 0.0116413, Final residual = 8.58587e-13, No Iterations 66
smoothSolver:  Solving for Uy, Initial residual = 0.0225411, Final residual = 8.7697e-13, No Iterations 70
GAMG:  Solving for p, Initial residual = 0.0181374, Final residual = 8.34411e-13, No Iterations 41
time step continuity errors : sum local = 1.3285e-14, global = 1.13115e-15, cumulative = 7.63706e-15
smoothSolver:  Solving for nuTilda, Initial residual = 0.018811, Final residual = 8.51063e-13, No Iterations 74
ExecutionTime = 33.31 s  ClockTime = 33 s

forceCoeffs forceCoeffs write:
    Coefficient	Total	Pressure	Viscous	Internal
    Cd:	0.00145766	0.0014073	5.03565e-05	0
    Cd(f):	0.00076712	0.000740994	2.61257e-05	0
    Cd(r):	0.000690541	0.00066631	2.42309e-05	0
    Cl:	-7.65795e-05	-7.46847e-05	-1.8948e-06	0
    Cl(f):	-3.82213e-05	-3.73423e-05	-8.78929e-07	0
    Cl(r):	-3.83582e-05	-3.73423e-05	-1.01587e-06	0
    CmPitch:	6.84692e-08	-2.79453e-16	6.84692e-08	0
    CmRoll:	3.82897e-05	3.73423e-05	9.47398e-07	0
    CmYaw:	0.00072883	0.000703652	2.51783e-05	0
    Cs:	-1.31532e-23	-2.07138e-23	7.56061e-24	0
    Cs(f):	0.00072883	0.000703652	2.51783e-05	0
    Cs(r):	-0.00072883	-0.000703652	-2.51783e-05	0

    writing force and moment coefficient files.

Time = 43

smoothSolver:  Solving for Ux, Initial residual = 0.0112792, Final residual = 8.45732e-13, No Iterations 66
smoothSolver:  Solving for Uy, Initial residual = 0.0215314, Final residual = 8.34524e-13, No Iterations 70
GAMG:  Solving for p, Initial residual = 0.0178742, Final residual = 8.45496e-13, No Iterations 41
time step continuity errors : sum local = 1.30476e-14, global = 1.11337e-15, cumulative = 8.75043e-15
smoothSolver:  Solving for nuTilda, Initial residual = 0.0184481, Final residual = 8.71077e-13, No Iterations 74
ExecutionTime = 33.92 s  ClockTime = 34 s

forceCoeffs forceCoeffs write:
    Coefficient	Total	Pressure	Viscous	Internal
    Cd:	0.00145142	0.00140125	5.01688e-05	0
    Cd(f):	0.000763562	0.000737526	2.60362e-05	0
    Cd(r):	0.000687861	0.000663729	2.41326e-05	0
    Cl:	-7.57009e-05	-7.37973e-05	-1.90356e-06	0
    Cl(f):	-3.77928e-05	-3.68987e-05	-8.94178e-07	0
    Cl(r):	-3.7908e-05	-3.68987e-05	-1.00938e-06	0
    CmPitch:	5.76001e-08	-3.2533e-16	5.76001e-08	0
    CmRoll:	3.78504e-05	3.68987e-05	9.51778e-07	0
    CmYaw:	0.000725712	0.000700627	2.50844e-05	0
    Cs:	-1.29534e-23	-2.04493e-23	7.49588e-24	0
    Cs(f):	0.000725712	0.000700627	2.50844e-05	0
    Cs(r):	-0.000725712	-0.000700627	-2.50844e-05	0

    writing force and moment coefficient files.

Time = 44

smoothSolver:  Solving for Ux, Initial residual = 0.0109377, Final residual = 8.41558e-13, No Iterations 66
smoothSolver:  Solving for Uy, Initial residual = 0.0205869, Final residual = 7.89319e-13, No Iterations 70
GAMG:  Solving for p, Initial residual = 0.017663, Final residual = 8.37736e-13, No Iterations 41
time step continuity errors : sum local = 1.25348e-14, global = 1.0756e-15, cumulative = 9.82602e-15
smoothSolver:  Solving for nuTilda, Initial residual = 0.0181321, Final residual = 8.89588e-13, No Iterations 74
ExecutionTime = 34.53 s  ClockTime = 35 s

forceCoeffs forceCoeffs write:
    Coefficient	Total	Pressure	Viscous	Internal
    Cd:	0.0014453	0.00139532	4.99804e-05	0
    Cd(f):	0.000759805	0.000733869	2.59362e-05	0
    Cd(r):	0.000685498	0.000661454	2.40442e-05	0
    Cl:	-7.43075e-05	-7.24155e-05	-1.89203e-06	0
    Cl(f):	-3.71082e-05	-3.62077e-05	-9.005e-07	0
    Cl(r):	-3.71993e-05	-3.62077e-05	-9.91534e-07	0
    CmPitch:	4.55169e-08	-3.70596e-16	4.55169e-08	0
    CmRoll:	3.71537e-05	3.62077e-05	9.46017e-07	0
    CmYaw:	0.000722652	0.000697662	2.49902e-05	0
    Cs:	-1.27717e-23	-2.01747e-23	7.40301e-24	0
    Cs(f):	0.000722652	0.000697662	2.49902e-05	0
    Cs(r):	-0.000722652	-0.000697662	-2.49902e-05	0

    writing force and moment coefficient files.

Time = 45

smoothSolver:  Solving for Ux, Initial residual = 0.0106081, Final residual = 8.4534e-13, No Iterations 66
smoothSolver:  Solving for Uy, Initial residual = 0.0197104, Final residual = 7.42616e-13, No Iterations 70
GAMG:  Solving for p, Initial residual = 0.0172053, Final residual = 7.97233e-13, No Iterations 41
time step continuity errors : sum local = 1.17908e-14, global = 1.02275e-15, cumulative = 1.08488e-14
smoothSolver:  Solving for nuTilda, Initial residual = 0.0178088, Final residual = 9.07547e-13, No Iterations 74
ExecutionTime = 35.16 s  ClockTime = 35 s

forceCoeffs forceCoeffs write:
    Coefficient	Total	Pressure	Viscous	Internal
    Cd:	0.00143881	0.00138903	4.97742e-05	0
    Cd(f):	0.000755625	0.000729806	2.58189e-05	0
    Cd(r):	0.000683183	0.000659228	2.39553e-05	0
    Cl:	-7.24416e-05	-7.0578e-05	-1.8636e-06	0
    Cl(f):	-3.61869e-05	-3.5289e-05	-8.97879e-07	0
    Cl(r):	-3.62547e-05	-3.5289e-05	-9.65717e-07	0
    CmPitch:	3.39191e-08	-4.11312e-16	3.39191e-08	0
    CmRoll:	3.62208e-05	3.5289e-05	9.31798e-07	0
    CmYaw:	0.000719404	0.000694517	2.48871e-05	0
    Cs:	-1.26091e-23	-1.98854e-23	7.27631e-24	0
    Cs(f):	0.000719404	0.000694517	2.48871e-05	0
    Cs(r):	-0.000719404	-0.000694517	-2.48871e-05	0

    writing force and moment coefficient files.

Time = 46

smoothSolver:  Solving for Ux, Initial residual = 0.0102938, Final residual = 8.53058e-13, No Iterations 66
smoothSolver:  Solving for Uy, Initial residual = 0.0189045, Final residual = 9.69095e-13, No Iterations 69
GAMG:  Solving for p, Initial residual = 0.0163804, Final residual = 7.36612e-13, No Iterations 41
time step continuity errors : sum local = 1.10364e-14, global = 9.64603e-16, cumulative = 1.18134e-14
smoothSolver:  Solving for nuTilda, Initial residual = 0.0175192, Final residual = 9.24227e-13, No Iterations 74
ExecutionTime = 35.75 s  ClockTime = 36 s

forceCoeffs forceCoeffs write:
    Coefficient	Total	Pressure	Viscous	Internal
    Cd:	0.00143163	0.00138209	4.95338e-05	0
    Cd(f):	0.000750879	0.000725201	2.56783e-05	0
    Cd(r):	0.000680747	0.000656892	2.38555e-05	0
    Cl:	-7.01317e-05	-6.83089e-05	-1.82279e-06	0
    Cl(f):	-3.50408e-05	-3.41545e-05	-8.86295e-07	0
    Cl(r):	-3.5091e-05	-3.41545e-05	-9.36495e-07	0
    CmPitch:	2.51003e-08	-4.4368e-16	2.51003e-08	0
    CmRoll:	3.50659e-05	3.41545e-05	9.11395e-07	0
    CmYaw:	0.000715813	0.000691046	2.47669e-05	0
    Cs:	-1.24564e-23	-1.95799e-23	7.12354e-24	0
    Cs(f):	0.000715813	0.000691046	2.47669e-05	0
    Cs(r):	-0.000715813	-0.000691046	-2.47669e-05	0

    writing force and moment coefficient files.

Time = 47

smoothSolver:  Solving for Ux, Initial residual = 0.00998519, Final residual = 8.6203e-13, No Iterations 66
smoothSolver:  Solving for Uy, Initial residual = 0.0181754, Final residual = 9.06325e-13, No Iterations 69
GAMG:  Solving for p, Initial residual = 0.015596, Final residual = 6.83332e-13, No Iterations 41
time step continuity errors : sum local = 1.03668e-14, global = 9.07182e-16, cumulative = 1.27206e-14
smoothSolver:  Solving for nuTilda, Initial residual = 0.0172138, Final residual = 9.40533e-13, No Iterations 74
ExecutionTime = 36.37 s  ClockTime = 36 s

forceCoeffs forceCoeffs write:
    Coefficient	Total	Pressure	Viscous	Internal
    Cd:	0.00142371	0.00137446	4.92504e-05	0
    Cd(f):	0.000745553	0.000720042	2.55114e-05	0
    Cd(r):	0.000678157	0.000654418	2.3739e-05	0
    Cl:	-6.73967e-05	-6.56243e-05	-1.77241e-06	0
    Cl(f):	-3.36779e-05	-3.28121e-05	-8.65763e-07	0
    Cl(r):	-3.37188e-05	-3.28121e-05	-9.06644e-07	0
    CmPitch:	2.04404e-08	-4.66717e-16	2.04404e-08	0
    CmRoll:	3.36983e-05	3.28121e-05	8.86204e-07	0
    CmYaw:	0.000711855	0.00068723	2.46252e-05	0
    Cs:	-1.2301e-23	-1.9262e-23	6.96102e-24	0
    Cs(f):	0.000711855	0.00068723	2.46252e-05	0
    Cs(r):	-0.000711855	-0.00068723	-2.46252e-05	0

    writing force and moment coefficient files.

Time = 48

smoothSolver:  Solving for Ux, Initial residual = 0.00969328, Final residual = 8.71878e-13, No Iterations 66
smoothSolver:  Solving for Uy, Initial residual = 0.0175039, Final residual = 8.49572e-13, No Iterations 69
GAMG:  Solving for p, Initial residual = 0.0148474, Final residual = 6.35027e-13, No Iterations 41
time step continuity errors : sum local = 9.75542e-15, global = 8.58909e-16, cumulative = 1.35795e-14
smoothSolver:  Solving for nuTilda, Initial residual = 0.016924, Final residual = 9.55448e-13, No Iterations 74
ExecutionTime = 36.98 s  ClockTime = 37 s

forceCoeffs forceCoeffs write:
    Coefficient	Total	Pressure	Viscous	Internal
    Cd:	0.00141531	0.00136638	4.89291e-05	0
    Cd(f):	0.000739775	0.000714454	2.53214e-05	0
    Cd(r):	0.000675536	0.000651929	2.36077e-05	0
    Cl:	-6.42392e-05	-6.25255e-05	-1.71371e-06	0
    Cl(f):	-3.20999e-05	-3.12627e-05	-8.37182e-07	0
    Cl(r):	-3.21393e-05	-3.12627e-05	-8.76531e-07	0
    CmPitch:	1.96746e-08	-4.81692e-16	1.96746e-08	0
    CmRoll:	3.21196e-05	3.12627e-05	8.56857e-07	0
    CmYaw:	0.000707656	0.000683191	2.44645e-05	0
    Cs:	-1.2152e-23	-1.89366e-23	6.78459e-24	0
    Cs(f):	0.000707656	0.000683191	2.44645e-05	0
    Cs(r):	-0.000707656	-0.000683191	-2.44645e-05	0

    writing force and moment coefficient files.

Time = 49

smoothSolver:  Solving for Ux, Initial residual = 0.00940671, Final residual = 8.8273e-13, No Iterations 66
smoothSolver:  Solving for Uy, Initial residual = 0.0168862, Final residual = 8.00071e-13, No Iterations 69
GAMG:  Solving for p, Initial residual = 0.0141263, Final residual = 5.93069e-13, No Iterations 41
time step continuity errors : sum local = 9.22781e-15, global = 8.09801e-16, cumulative = 1.43893e-14
smoothSolver:  Solving for nuTilda, Initial residual = 0.0166042, Final residual = 9.70003e-13, No Iterations 74
ExecutionTime = 37.58 s  ClockTime = 38 s

forceCoeffs forceCoeffs write:
    Coefficient	Total	Pressure	Viscous	Internal
    Cd:	0.00140681	0.00135823	4.85883e-05	0
    Cd(f):	0.000733738	0.000708621	2.51173e-05	0
    Cd(r):	0.000673075	0.000649604	2.3471e-05	0
    Cl:	-6.06627e-05	-5.90163e-05	-1.64635e-06	0
    Cl(f):	-3.03104e-05	-2.95082e-05	-8.0225e-07	0
    Cl(r):	-3.03523e-05	-2.95082e-05	-8.44103e-07	0
    CmPitch:	2.09265e-08	-4.90628e-16	2.09266e-08	0
    CmRoll:	3.03313e-05	2.95082e-05	8.23177e-07	0
    CmYaw:	0.000703407	0.000679113	2.42941e-05	0
    Cs:	-1.2007e-23	-1.86105e-23	6.60353e-24	0
    Cs(f):	0.000703407	0.000679113	2.42941e-05	0
    Cs(r):	-0.000703407	-0.000679113	-2.42941e-05	0

    writing force and moment coefficient files.

Time = 50

smoothSolver:  Solving for Ux, Initial residual = 0.00912714, Final residual = 8.9478e-13, No Iterations 66
smoothSolver:  Solving for Uy, Initial residual = 0.0163215, Final residual = 7.57536e-13, No Iterations 69
GAMG:  Solving for p, Initial residual = 0.0134395, Final residual = 5.66221e-13, No Iterations 41
time step continuity errors : sum local = 8.92693e-15, global = 7.70047e-16, cumulative = 1.51593e-14
smoothSolver:  Solving for nuTilda, Initial residual = 0.0162955, Final residual = 9.83249e-13, No Iterations 74
ExecutionTime = 38.19 s  ClockTime = 38 s

forceCoeffs forceCoeffs write:
    Coefficient	Total	Pressure	Viscous	Internal
    Cd:	0.00139863	0.00135038	4.82517e-05	0
    Cd(f):	0.000727647	0.000702737	2.49108e-05	0
    Cd(r):	0.000670982	0.000647641	2.33409e-05	0
    Cl:	-5.66654e-05	-5.50955e-05	-1.56989e-06	0
    Cl(f):	-2.83106e-05	-2.75477e-05	-7.62899e-07	0
    Cl(r):	-2.83547e-05	-2.75477e-05	-8.06993e-07	0
    CmPitch:	2.20467e-08	-4.96279e-16	2.20467e-08	0
    CmRoll:	2.83327e-05	2.75477e-05	7.84946e-07	0
    CmYaw:	0.000699315	0.000675189	2.41258e-05	0
    Cs:	-1.18622e-23	-1.82891e-23	6.42697e-24	0
    Cs(f):	0.000699315	0.000675189	2.41258e-05	0
    Cs(r):	-0.000699315	-0.000675189	-2.41258e-05	0

    writing force and moment coefficient files.

Time = 51

smoothSolver:  Solving for Ux, Initial residual = 0.00885211, Final residual = 9.07815e-13, No Iterations 66
smoothSolver:  Solving for Uy, Initial residual = 0.0158019, Final residual = 7.21669e-13, No Iterations 69
GAMG:  Solving for p, Initial residual = 0.0128025, Final residual = 5.54622e-13, No Iterations 41
time step continuity errors : sum local = 8.85294e-15, global = 7.38299e-16, cumulative = 1.58976e-14
smoothSolver:  Solving for nuTilda, Initial residual = 0.0159587, Final residual = 9.96229e-13, No Iterations 74
ExecutionTime = 38.79 s  ClockTime = 39 s

forceCoeffs forceCoeffs write:
    Coefficient	Total	Pressure	Viscous	Internal
    Cd:	0.00139108	0.00134315	4.79382e-05	0
    Cd(f):	0.000721674	0.000696963	2.4711e-05	0
    Cd(r):	0.000669411	0.000646183	2.32271e-05	0
    Cl:	-5.22631e-05	-5.07792e-05	-1.48393e-06	0
    Cl(f):	-2.61101e-05	-2.53896e-05	-7.20527e-07	0
    Cl(r):	-2.6153e-05	-2.53896e-05	-7.63401e-07	0
    CmPitch:	2.14369e-08	-5.00604e-16	2.14369e-08	0
    CmRoll:	2.61316e-05	2.53896e-05	7.41964e-07	0
    CmYaw:	0.000695542	0.000671573	2.39691e-05	0
    Cs:	-1.17579e-23	-1.79764e-23	6.21853e-24	0
    Cs(f):	0.000695542	0.000671573	2.39691e-05	0
    Cs(r):	-0.000695542	-0.000671573	-2.39691e-05	0

    writing force and moment coefficient files.

Time = 52

smoothSolver:  Solving for Ux, Initial residual = 0.00857875, Final residual = 9.22093e-13, No Iterations 66
smoothSolver:  Solving for Uy, Initial residual = 0.0153182, Final residual = 9.69933e-13, No Iterations 68
GAMG:  Solving for p, Initial residual = 0.0121952, Final residual = 5.42308e-13, No Iterations 41
time step continuity errors : sum local = 8.76677e-15, global = 7.09006e-16, cumulative = 1.66066e-14
smoothSolver:  Solving for nuTilda, Initial residual = 0.0156367, Final residual = 7.39679e-13, No Iterations 75
ExecutionTime = 39.43 s  ClockTime = 39 s

forceCoeffs forceCoeffs write:
    Coefficient	Total	Pressure	Viscous	Internal
    Cd:	0.00138431	0.00133665	4.76591e-05	0
    Cd(f):	0.000715883	0.00069136	2.45235e-05	0
    Cd(r):	0.000668422	0.000645286	2.31356e-05	0
    Cl:	-4.74616e-05	-4.60736e-05	-1.38793e-06	0
    Cl(f):	-2.37127e-05	-2.30368e-05	-6.75901e-07	0
    Cl(r):	-2.37488e-05	-2.30368e-05	-7.12033e-07	0
    CmPitch:	1.80659e-08	-5.05193e-16	1.80659e-08	0
    CmRoll:	2.37308e-05	2.30368e-05	6.93967e-07	0
    CmYaw:	0.000692153	0.000668323	2.38295e-05	0
    Cs:	-1.16556e-23	-1.76725e-23	6.01697e-24	0
    Cs(f):	0.000692153	0.000668323	2.38295e-05	0
    Cs(r):	-0.000692153	-0.000668323	-2.38295e-05	0

    writing force and moment coefficient files.

Time = 53

smoothSolver:  Solving for Ux, Initial residual = 0.00831342, Final residual = 9.37421e-13, No Iterations 66
smoothSolver:  Solving for Uy, Initial residual = 0.0148665, Final residual = 9.36831e-13, No Iterations 68
GAMG:  Solving for p, Initial residual = 0.0116136, Final residual = 5.23109e-13, No Iterations 41
time step continuity errors : sum local = 8.56264e-15, global = 6.74184e-16, cumulative = 1.72808e-14
smoothSolver:  Solving for nuTilda, Initial residual = 0.0153208, Final residual = 7.48626e-13, No Iterations 75
ExecutionTime = 40.07 s  ClockTime = 40 s

forceCoeffs forceCoeffs write:
    Coefficient	Total	Pressure	Viscous	Internal
    Cd:	0.00137819	0.00133077	4.74131e-05	0
    Cd(f):	0.000710238	0.000685891	2.4347e-05	0
    Cd(r):	0.000667948	0.000644882	2.3066e-05	0
    Cl:	-4.22903e-05	-4.10093e-05	-1.28099e-06	0
    Cl(f):	-2.11331e-05	-2.05047e-05	-6.28482e-07	0
    Cl(r):	-2.11572e-05	-2.05047e-05	-6.52511e-07	0
    CmPitch:	1.20143e-08	-5.10108e-16	1.20143e-08	0
    CmRoll:	2.11451e-05	2.05047e-05	6.40496e-07	0
    CmYaw:	0.000689093	0.000665386	2.37065e-05	0
    Cs:	-1.15572e-23	-1.73759e-23	5.8187e-24	0
    Cs(f):	0.000689093	0.000665386	2.37065e-05	0
    Cs(r):	-0.000689093	-0.000665386	-2.37065e-05	0

    writing force and moment coefficient files.

Time = 54

smoothSolver:  Solving for Ux, Initial residual = 0.00804938, Final residual = 9.53642e-13, No Iterations 66
smoothSolver:  Solving for Uy, Initial residual = 0.0144435, Final residual = 9.11041e-13, No Iterations 68
GAMG:  Solving for p, Initial residual = 0.0110612, Final residual = 4.88347e-13, No Iterations 41
time step continuity errors : sum local = 8.08754e-15, global = 6.32427e-16, cumulative = 1.79132e-14
smoothSolver:  Solving for nuTilda, Initial residual = 0.0150064, Final residual = 7.56996e-13, No Iterations 75
ExecutionTime = 40.69 s  ClockTime = 41 s

forceCoeffs forceCoeffs write:
    Coefficient	Total	Pressure	Viscous	Internal
    Cd:	0.00137247	0.00132528	4.71902e-05	0
    Cd(f):	0.000704616	0.00068044	2.41765e-05	0
    Cd(r):	0.000667852	0.000644838	2.30137e-05	0
    Cl:	-3.67645e-05	-3.56017e-05	-1.16286e-06	0
    Cl(f):	-1.83784e-05	-1.78008e-05	-5.77569e-07	0
    Cl(r):	-1.83861e-05	-1.78008e-05	-5.85293e-07	0
    CmPitch:	3.86195e-09	-5.14733e-16	3.86195e-09	0
    CmRoll:	1.83823e-05	1.78008e-05	5.81431e-07	0
    CmYaw:	0.000686234	0.000662639	2.35951e-05	0
    Cs:	-1.14619e-23	-1.7083e-23	5.62106e-24	0
    Cs(f):	0.000686234	0.000662639	2.35951e-05	0
    Cs(r):	-0.000686234	-0.000662639	-2.35951e-05	0

    writing force and moment coefficient files.

Time = 55

smoothSolver:  Solving for Ux, Initial residual = 0.00779941, Final residual = 9.70625e-13, No Iterations 66
smoothSolver:  Solving for Uy, Initial residual = 0.0140451, Final residual = 8.91268e-13, No Iterations 68
GAMG:  Solving for p, Initial residual = 0.0105572, Final residual = 9.19387e-13, No Iterations 40
time step continuity errors : sum local = 1.53932e-14, global = -3.36849e-17, cumulative = 1.78795e-14
smoothSolver:  Solving for nuTilda, Initial residual = 0.0147391, Final residual = 7.64942e-13, No Iterations 75
ExecutionTime = 41.33 s  ClockTime = 41 s

forceCoeffs forceCoeffs write:
    Coefficient	Total	Pressure	Viscous	Internal
    Cd:	0.0013668	0.00131983	4.6975e-05	0
    Cd(f):	0.000698864	0.00067486	2.40046e-05	0
    Cd(r):	0.000667937	0.000644967	2.29704e-05	0
    Cl:	-3.09273e-05	-2.98931e-05	-1.03421e-06	0
    Cl(f):	-1.54694e-05	-1.49465e-05	-5.22846e-07	0
    Cl(r):	-1.54579e-05	-1.49465e-05	-5.11369e-07	0
    CmPitch:	-5.73836e-09	-5.166e-16	-5.73836e-09	0
    CmRoll:	1.54637e-05	1.49465e-05	5.17107e-07	0
    CmYaw:	0.000683401	0.000659913	2.34875e-05	0
    Cs:	-1.13674e-23	-1.67886e-23	5.4212e-24	0
    Cs(f):	0.000683401	0.000659913	2.34875e-05	0
    Cs(r):	-0.000683401	-0.000659913	-2.34875e-05	0

    writing force and moment coefficient files.

Time = 56

smoothSolver:  Solving for Ux, Initial residual = 0.00754786, Final residual = 9.88468e-13, No Iterations 66
smoothSolver:  Solving for Uy, Initial residual = 0.0136699, Final residual = 8.77356e-13, No Iterations 68
GAMG:  Solving for p, Initial residual = 0.0101152, Final residual = 8.36465e-13, No Iterations 40
time step continuity errors : sum local = 1.41595e-14, global = -6.3076e-17, cumulative = 1.78165e-14
smoothSolver:  Solving for nuTilda, Initial residual = 0.0143984, Final residual = 7.72629e-13, No Iterations 75
ExecutionTime = 41.95 s  ClockTime = 42 s

forceCoeffs forceCoeffs write:
    Coefficient	Total	Pressure	Viscous	Internal
    Cd:	0.0013609	0.00131415	4.67519e-05	0
    Cd(f):	0.000692844	0.00066902	2.38244e-05	0
    Cd(r):	0.000668054	0.000645126	2.29275e-05	0
    Cl:	-2.47906e-05	-2.38937e-05	-8.9695e-07	0
    Cl(f):	-1.24109e-05	-1.19468e-05	-4.64054e-07	0
    Cl(r):	-1.23797e-05	-1.19468e-05	-4.32896e-07	0
    CmPitch:	-1.55787e-08	-5.12899e-16	-1.55787e-08	0
    CmRoll:	1.23953e-05	1.19468e-05	4.48475e-07	0
    CmYaw:	0.000680449	0.000657073	2.3376e-05	0
    Cs:	-1.1276e-23	-1.64889e-23	5.21286e-24	0
    Cs(f):	0.000680449	0.000657073	2.3376e-05	0
    Cs(r):	-0.000680449	-0.000657073	-2.3376e-05	0

    writing force and moment coefficient files.

Time = 57

smoothSolver:  Solving for Ux, Initial residual = 0.00731294, Final residual = 7.28634e-13, No Iterations 67
smoothSolver:  Solving for Uy, Initial residual = 0.0133149, Final residual = 8.68748e-13, No Iterations 68
GAMG:  Solving for p, Initial residual = 0.00969537, Final residual = 9.64778e-13, No Iterations 39
time step continuity errors : sum local = 1.65037e-14, global = 1.37146e-15, cumulative = 1.91879e-14
smoothSolver:  Solving for nuTilda, Initial residual = 0.0141303, Final residual = 7.7977e-13, No Iterations 75
ExecutionTime = 42.55 s  ClockTime = 43 s

forceCoeffs forceCoeffs write:
    Coefficient	Total	Pressure	Viscous	Internal
    Cd:	0.0013546	0.00130809	4.65086e-05	0
    Cd(f):	0.000686498	0.000662867	2.36308e-05	0
    Cd(r):	0.000668104	0.000645227	2.28777e-05	0
    Cl:	-1.83938e-05	-1.76407e-05	-7.53122e-07	0
    Cl(f):	-9.22119e-06	-8.82034e-06	-4.00847e-07	0
    Cl(r):	-9.17262e-06	-8.82034e-06	-3.52275e-07	0
    CmPitch:	-2.42862e-08	-5.00863e-16	-2.42862e-08	0
    CmRoll:	9.1969e-06	8.82034e-06	3.76561e-07	0
    CmYaw:	0.000677301	0.000654047	2.32543e-05	0
    Cs:	-1.11786e-23	-1.61802e-23	5.00168e-24	0
    Cs(f):	0.000677301	0.000654047	2.32543e-05	0
    Cs(r):	-0.000677301	-0.000654047	-2.32543e-05	0

    writing force and moment coefficient files.

Time = 58

smoothSolver:  Solving for Ux, Initial residual = 0.00707354, Final residual = 7.43128e-13, No Iterations 67
smoothSolver:  Solving for Uy, Initial residual = 0.012977, Final residual = 8.64956e-13, No Iterations 68
GAMG:  Solving for p, Initial residual = 0.00929272, Final residual = 9.25906e-13, No Iterations 39
time step continuity errors : sum local = 1.60029e-14, global = 1.34756e-15, cumulative = 2.05355e-14
smoothSolver:  Solving for nuTilda, Initial residual = 0.013781, Final residual = 7.86733e-13, No Iterations 75
ExecutionTime = 43.2 s  ClockTime = 43 s

forceCoeffs forceCoeffs write:
    Coefficient	Total	Pressure	Viscous	Internal
    Cd:	0.00134796	0.00130172	4.62402e-05	0
    Cd(f):	0.000679837	0.000656415	2.34223e-05	0
    Cd(r):	0.000668119	0.000645301	2.28178e-05	0
    Cl:	-1.17182e-05	-1.11136e-05	-6.04517e-07	0
    Cl(f):	-5.88984e-06	-5.55682e-06	-3.33018e-07	0
    Cl(r):	-5.82832e-06	-5.55682e-06	-2.71498e-07	0
    CmPitch:	-3.07598e-08	-4.79287e-16	-3.07598e-08	0
    CmRoll:	5.85908e-06	5.55682e-06	3.02258e-07	0
    CmYaw:	0.000673978	0.000650858	2.31201e-05	0
    Cs:	-1.1076e-23	-1.58625e-23	4.78653e-24	0
    Cs(f):	0.000673978	0.000650858	2.31201e-05	0
    Cs(r):	-0.000673978	-0.000650858	-2.31201e-05	0

    writing force and moment coefficient files.

Time = 59

smoothSolver:  Solving for Ux, Initial residual = 0.00685165, Final residual = 7.58815e-13, No Iterations 67
smoothSolver:  Solving for Uy, Initial residual = 0.0126514, Final residual = 8.65059e-13, No Iterations 68
GAMG:  Solving for p, Initial residual = 0.00889606, Final residual = 9.38545e-13, No Iterations 39
time step continuity errors : sum local = 1.63941e-14, global = 1.37736e-15, cumulative = 2.19129e-14
smoothSolver:  Solving for nuTilda, Initial residual = 0.0135213, Final residual = 7.93122e-13, No Iterations 75
ExecutionTime = 43.8 s  ClockTime = 44 s

forceCoeffs forceCoeffs write:
    Coefficient	Total	Pressure	Viscous	Internal
    Cd:	0.00134115	0.0012952	4.59505e-05	0
    Cd(f):	0.000672962	0.000649761	2.3201e-05	0
    Cd(r):	0.000668185	0.000645435	2.27495e-05	0
    Cl:	-4.77745e-06	-4.32589e-06	-4.51554e-07	0
    Cl(f):	-2.42346e-06	-2.16295e-06	-2.60514e-07	0
    Cl(r):	-2.35399e-06	-2.16295e-06	-1.9104e-07	0
    CmPitch:	-3.47369e-08	-4.49239e-16	-3.47369e-08	0
    CmRoll:	2.38872e-06	2.16295e-06	2.25777e-07	0
    CmYaw:	0.000670573	0.000647598	2.29753e-05	0
    Cs:	-1.09599e-23	-1.55363e-23	4.57641e-24	0
    Cs(f):	0.000670573	0.000647598	2.29753e-05	0
    Cs(r):	-0.000670573	-0.000647598	-2.29753e-05	0

    writing force and moment coefficient files.

Time = 60

smoothSolver:  Solving for Ux, Initial residual = 0.00662536, Final residual = 7.75522e-13, No Iterations 67
smoothSolver:  Solving for Uy, Initial residual = 0.0123298, Final residual = 8.68509e-13, No Iterations 68
GAMG:  Solving for p, Initial residual = 0.00851797, Final residual = 9.82241e-13, No Iterations 39
[...]
    Cl:	0.00196257	0.00194128	2.12863e-05	0
    Cl(f):	0.000980695	0.000970639	1.00556e-05	0
    Cl(r):	0.00098187	0.000970639	1.12307e-05	0
    CmPitch:	-5.87536e-07	6.36663e-15	-5.87536e-07	0
    CmRoll:	-0.000981283	-0.000970639	-1.06432e-05	0
    CmYaw:	0.00136327	0.00131923	4.40444e-05	0
    Cs:	6.41202e-23	5.267e-23	1.14502e-23	0
    Cs(f):	0.00136327	0.00131923	4.40444e-05	0
    Cs(r):	-0.00136327	-0.00131923	-4.40444e-05	0

    writing force and moment coefficient files.

Time = 1986

smoothSolver:  Solving for Ux, Initial residual = 0.0384205, Final residual = 8.36498e-13, No Iterations 72
smoothSolver:  Solving for Uy, Initial residual = 0.0438559, Final residual = 9.94244e-13, No Iterations 73
GAMG:  Solving for p, Initial residual = 0.0176577, Final residual = 8.73206e-13, No Iterations 44
time step continuity errors : sum local = 1.79291e-14, global = 7.40988e-16, cumulative = 3.54184e-13
smoothSolver:  Solving for nuTilda, Initial residual = 0.0361195, Final residual = 7.80579e-13, No Iterations 76
ExecutionTime = 1264.63 s  ClockTime = 12157 s

forceCoeffs forceCoeffs write:
    Coefficient	Total	Pressure	Viscous	Internal
    Cd:	0.00281122	0.00272158	8.96366e-05	0
    Cd(f):	0.000284551	0.000254104	3.04471e-05	0
    Cd(r):	0.00252667	0.00246748	5.91895e-05	0
    Cl:	0.00224212	0.00221337	2.87425e-05	0
    Cl(f):	0.00112026	0.00110669	1.35752e-05	0
    Cl(r):	0.00112185	0.00110669	1.51672e-05	0
    CmPitch:	-7.96013e-07	5.79154e-15	-7.96013e-07	0
    CmRoll:	-0.00112106	-0.00110669	-1.43712e-05	0
    CmYaw:	0.00140561	0.00136079	4.48183e-05	0
    Cs:	6.02716e-23	5.78465e-23	2.42505e-24	0
    Cs(f):	0.00140561	0.00136079	4.48183e-05	0
    Cs(r):	-0.00140561	-0.00136079	-4.48183e-05	0

    writing force and moment coefficient files.

Time = 1987

smoothSolver:  Solving for Ux, Initial residual = 0.038399, Final residual = 8.31179e-13, No Iterations 72
smoothSolver:  Solving for Uy, Initial residual = 0.0437456, Final residual = 9.69697e-13, No Iterations 73
GAMG:  Solving for p, Initial residual = 0.0174948, Final residual = 6.67756e-13, No Iterations 45
time step continuity errors : sum local = 1.3701e-14, global = 5.98072e-16, cumulative = 3.54782e-13
smoothSolver:  Solving for nuTilda, Initial residual = 0.0359253, Final residual = 7.88146e-13, No Iterations 76
ExecutionTime = 1265.25 s  ClockTime = 12157 s

forceCoeffs forceCoeffs write:
    Coefficient	Total	Pressure	Viscous	Internal
    Cd:	0.00289467	0.00280384	9.08278e-05	0
    Cd(f):	0.000201103	0.000173891	2.7212e-05	0
    Cd(r):	0.00269356	0.00262995	6.36158e-05	0
    Cl:	0.00249246	0.00245606	3.64037e-05	0
    Cl(f):	0.00124492	0.00122803	1.68956e-05	0
    Cl(r):	0.00124754	0.00122803	1.95081e-05	0
    CmPitch:	-1.30628e-06	4.66778e-15	-1.30628e-06	0
    CmRoll:	-0.00124623	-0.00122803	-1.82019e-05	0
    CmYaw:	0.00144733	0.00140192	4.54139e-05	0
    Cs:	6.26803e-23	6.15667e-23	1.11367e-24	0
    Cs(f):	0.00144733	0.00140192	4.54139e-05	0
    Cs(r):	-0.00144733	-0.00140192	-4.54139e-05	0

    writing force and moment coefficient files.

Time = 1988

smoothSolver:  Solving for Ux, Initial residual = 0.0383432, Final residual = 8.1469e-13, No Iterations 72
smoothSolver:  Solving for Uy, Initial residual = 0.0436382, Final residual = 9.49414e-13, No Iterations 73
GAMG:  Solving for p, Initial residual = 0.0172521, Final residual = 7.38787e-13, No Iterations 45
time step continuity errors : sum local = 1.51311e-14, global = 6.67213e-16, cumulative = 3.55449e-13
smoothSolver:  Solving for nuTilda, Initial residual = 0.0362407, Final residual = 7.87906e-13, No Iterations 76
ExecutionTime = 1265.85 s  ClockTime = 12158 s

forceCoeffs forceCoeffs write:
    Coefficient	Total	Pressure	Viscous	Internal
    Cd:	0.00298086	0.00288912	9.17346e-05	0
    Cd(f):	0.00012826	0.00010408	2.41804e-05	0
    Cd(r):	0.0028526	0.00278504	6.75542e-05	0
    Cl:	0.00272434	0.00268096	4.33737e-05	0
    Cl(f):	0.00136052	0.00134048	2.00431e-05	0
    Cl(r):	0.00136381	0.00134048	2.33306e-05	0
    CmPitch:	-1.64378e-06	3.59299e-15	-1.64378e-06	0
    CmRoll:	-0.00136217	-0.00134048	-2.16869e-05	0
    CmYaw:	0.00149043	0.00144456	4.58673e-05	0
    Cs:	6.49108e-23	6.45664e-23	3.44356e-25	0
    Cs(f):	0.00149043	0.00144456	4.58673e-05	0
    Cs(r):	-0.00149043	-0.00144456	-4.58673e-05	0

    writing force and moment coefficient files.

Time = 1989

smoothSolver:  Solving for Ux, Initial residual = 0.0382326, Final residual = 7.95121e-13, No Iterations 72
smoothSolver:  Solving for Uy, Initial residual = 0.0434873, Final residual = 9.37047e-13, No Iterations 73
GAMG:  Solving for p, Initial residual = 0.0170229, Final residual = 7.31964e-13, No Iterations 45
time step continuity errors : sum local = 1.49925e-14, global = 6.61423e-16, cumulative = 3.56111e-13
smoothSolver:  Solving for nuTilda, Initial residual = 0.0362097, Final residual = 7.84634e-13, No Iterations 76
ExecutionTime = 1266.46 s  ClockTime = 12159 s

forceCoeffs forceCoeffs write:
    Coefficient	Total	Pressure	Viscous	Internal
    Cd:	0.00306096	0.00296849	9.24694e-05	0
    Cd(f):	6.69888e-05	4.57735e-05	2.12153e-05	0
    Cd(r):	0.00299397	0.00292271	7.1254e-05	0
    Cl:	0.00292698	0.00287694	5.00387e-05	0
    Cl(f):	0.00146143	0.00143847	2.29636e-05	0
    Cl(r):	0.00146554	0.00143847	2.70751e-05	0
    CmPitch:	-2.05571e-06	2.43201e-15	-2.05571e-06	0
    CmRoll:	-0.00146349	-0.00143847	-2.50194e-05	0
    CmYaw:	0.00153048	0.00148424	4.62347e-05	0
    Cs:	6.60288e-23	6.62317e-23	-2.02915e-25	0
    Cs(f):	0.00153048	0.00148424	4.62347e-05	0
    Cs(r):	-0.00153048	-0.00148424	-4.62347e-05	0

    writing force and moment coefficient files.

Time = 1990

smoothSolver:  Solving for Ux, Initial residual = 0.0380697, Final residual = 7.73847e-13, No Iterations 72
smoothSolver:  Solving for Uy, Initial residual = 0.0433569, Final residual = 9.42355e-13, No Iterations 73
GAMG:  Solving for p, Initial residual = 0.0168626, Final residual = 7.433e-13, No Iterations 45
time step continuity errors : sum local = 1.52349e-14, global = 6.71916e-16, cumulative = 3.56783e-13
smoothSolver:  Solving for nuTilda, Initial residual = 0.0366109, Final residual = 7.76235e-13, No Iterations 76
ExecutionTime = 1267.09 s  ClockTime = 12159 s

forceCoeffs forceCoeffs write:
    Coefficient	Total	Pressure	Viscous	Internal
    Cd:	0.00313549	0.00304241	9.30856e-05	0
    Cd(f):	1.5114e-05	-3.34061e-06	1.84546e-05	0
    Cd(r):	0.00312038	0.00304575	7.46311e-05	0
    Cl:	0.00310526	0.00304909	5.61765e-05	0
    Cl(f):	0.00155022	0.00152454	2.56752e-05	0
    Cl(r):	0.00155505	0.00152454	3.05013e-05	0
    CmPitch:	-2.41309e-06	1.35904e-15	-2.41309e-06	0
    CmRoll:	-0.00155263	-0.00152454	-2.80882e-05	0
    CmYaw:	0.00156775	0.0015212	4.65428e-05	0
    Cs:	6.61965e-23	6.71727e-23	-9.76204e-25	0
    Cs(f):	0.00156775	0.0015212	4.65428e-05	0
    Cs(r):	-0.00156775	-0.0015212	-4.65428e-05	0

    writing force and moment coefficient files.

Time = 1991

smoothSolver:  Solving for Ux, Initial residual = 0.0378692, Final residual = 7.54344e-13, No Iterations 72
smoothSolver:  Solving for Uy, Initial residual = 0.0432451, Final residual = 9.64125e-13, No Iterations 73
GAMG:  Solving for p, Initial residual = 0.0167506, Final residual = 7.34553e-13, No Iterations 45
time step continuity errors : sum local = 1.509e-14, global = 6.67059e-16, cumulative = 3.5745e-13
smoothSolver:  Solving for nuTilda, Initial residual = 0.0366672, Final residual = 7.70981e-13, No Iterations 76
ExecutionTime = 1267.72 s  ClockTime = 12160 s

forceCoeffs forceCoeffs write:
    Coefficient	Total	Pressure	Viscous	Internal
    Cd:	0.00320305	0.00310942	9.36254e-05	0
    Cd(f):	-2.85245e-05	-4.4426e-05	1.59015e-05	0
    Cd(r):	0.00323157	0.00315385	7.77239e-05	0
    Cl:	0.0032601	0.00319828	6.18224e-05	0
    Cl(f):	0.00162732	0.00159914	2.81813e-05	0
    Cl(r):	0.00163278	0.00159914	3.36412e-05	0
    CmPitch:	-2.72994e-06	2.85278e-16	-2.72994e-06	0
    CmRoll:	-0.00163005	-0.00159914	-3.09112e-05	0
    CmYaw:	0.00160152	0.00155471	4.68127e-05	0
    Cs:	6.58321e-23	6.76229e-23	-1.79073e-24	0
    Cs(f):	0.00160152	0.00155471	4.68127e-05	0
    Cs(r):	-0.00160152	-0.00155471	-4.68127e-05	0

    writing force and moment coefficient files.

Time = 1992

smoothSolver:  Solving for Ux, Initial residual = 0.0376018, Final residual = 7.41837e-13, No Iterations 72
smoothSolver:  Solving for Uy, Initial residual = 0.0431383, Final residual = 9.96302e-13, No Iterations 73
GAMG:  Solving for p, Initial residual = 0.0166306, Final residual = 7.3023e-13, No Iterations 45
time step continuity errors : sum local = 1.50328e-14, global = 6.59966e-16, cumulative = 3.5811e-13
smoothSolver:  Solving for nuTilda, Initial residual = 0.0371543, Final residual = 7.67519e-13, No Iterations 76
ExecutionTime = 1268.35 s  ClockTime = 12160 s

forceCoeffs forceCoeffs write:
    Coefficient	Total	Pressure	Viscous	Internal
    Cd:	0.00326163	0.00316755	9.40786e-05	0
    Cd(f):	-6.51881e-05	-7.87501e-05	1.3562e-05	0
    Cd(r):	0.00332682	0.0032463	8.05167e-05	0
    Cl:	0.00339201	0.00332505	6.69547e-05	0
    Cl(f):	0.00169299	0.00166253	3.04691e-05	0
    Cl(r):	0.00169901	0.00166253	3.64856e-05	0
    CmPitch:	-3.00825e-06	-8.19256e-16	-3.00825e-06	0
    CmRoll:	-0.001696	-0.00166253	-3.34773e-05	0
    CmYaw:	0.00163081	0.00158378	4.70393e-05	0
    Cs:	6.46792e-23	6.78551e-23	-3.1759e-24	0
    Cs(f):	0.00163081	0.00158378	4.70393e-05	0
    Cs(r):	-0.00163081	-0.00158378	-4.70393e-05	0

    writing force and moment coefficient files.

Time = 1993

smoothSolver:  Solving for Ux, Initial residual = 0.0372962, Final residual = 7.37231e-13, No Iterations 72
smoothSolver:  Solving for Uy, Initial residual = 0.0430525, Final residual = 7.44035e-13, No Iterations 74
GAMG:  Solving for p, Initial residual = 0.0165742, Final residual = 6.9315e-13, No Iterations 45
time step continuity errors : sum local = 1.43154e-14, global = 6.2734e-16, cumulative = 3.58737e-13
smoothSolver:  Solving for nuTilda, Initial residual = 0.0372985, Final residual = 7.68827e-13, No Iterations 76
ExecutionTime = 1268.98 s  ClockTime = 12161 s

forceCoeffs forceCoeffs write:
    Coefficient	Total	Pressure	Viscous	Internal
    Cd:	0.00330967	0.00321525	9.44185e-05	0
    Cd(f):	-9.58037e-05	-0.000107207	1.14034e-05	0
    Cd(r):	0.00340547	0.00332245	8.30152e-05	0
    Cl:	0.00350127	0.00342966	7.16118e-05	0
    Cl(f):	0.00174738	0.00171483	3.25518e-05	0
    Cl(r):	0.00175389	0.00171483	3.906e-05	0
    CmPitch:	-3.25413e-06	-1.99575e-15	-3.25413e-06	0
    CmRoll:	-0.00175064	-0.00171483	-3.58059e-05	0
    CmYaw:	0.00165483	0.00160762	4.72093e-05	0
    Cs:	6.22275e-23	6.80522e-23	-5.82474e-24	0
    Cs(f):	0.00165483	0.00160762	4.72093e-05	0
    Cs(r):	-0.00165483	-0.00160762	-4.72093e-05	0

    writing force and moment coefficient files.

Time = 1994

smoothSolver:  Solving for Ux, Initial residual = 0.036946, Final residual = 7.38133e-13, No Iterations 72
smoothSolver:  Solving for Uy, Initial residual = 0.042982, Final residual = 7.75697e-13, No Iterations 74
GAMG:  Solving for p, Initial residual = 0.0165323, Final residual = 6.31162e-13, No Iterations 45
time step continuity errors : sum local = 1.30781e-14, global = 5.68497e-16, cumulative = 3.59306e-13
smoothSolver:  Solving for nuTilda, Initial residual = 0.0378428, Final residual = 7.68874e-13, No Iterations 76
ExecutionTime = 1269.68 s  ClockTime = 12162 s

forceCoeffs forceCoeffs write:
    Coefficient	Total	Pressure	Viscous	Internal
    Cd:	0.00334634	0.00325171	9.46288e-05	0
    Cd(f):	-0.000121293	-0.000130729	9.43554e-06	0
    Cd(r):	0.00346764	0.00338244	8.51932e-05	0
    Cl:	0.00358893	0.00351317	7.57577e-05	0
    Cl(f):	0.001791	0.00175659	3.44089e-05	0
    Cl(r):	0.00179794	0.00175659	4.13488e-05	0
    CmPitch:	-3.46992e-06	-3.14202e-15	-3.46992e-06	0
    CmRoll:	-0.00179447	-0.00175659	-3.78788e-05	0
    CmYaw:	0.00167317	0.00162586	4.73144e-05	0
    Cs:	5.92299e-23	6.84189e-23	-9.18901e-24	0
    Cs(f):	0.00167317	0.00162586	4.73144e-05	0
    Cs(r):	-0.00167317	-0.00162586	-4.73144e-05	0

    writing force and moment coefficient files.

Time = 1995

smoothSolver:  Solving for Ux, Initial residual = 0.0365937, Final residual = 7.44072e-13, No Iterations 72
smoothSolver:  Solving for Uy, Initial residual = 0.0429392, Final residual = 8.082e-13, No Iterations 74
GAMG:  Solving for p, Initial residual = 0.0165193, Final residual = 9.17656e-13, No Iterations 44
time step continuity errors : sum local = 1.90936e-14, global = 7.58093e-16, cumulative = 3.60064e-13
smoothSolver:  Solving for nuTilda, Initial residual = 0.0379532, Final residual = 7.72193e-13, No Iterations 76
ExecutionTime = 1270.31 s  ClockTime = 12162 s

forceCoeffs forceCoeffs write:
    Coefficient	Total	Pressure	Viscous	Internal
    Cd:	0.00337076	0.00327609	9.46752e-05	0
    Cd(f):	-0.000142574	-0.00015023	7.65639e-06	0
    Cd(r):	0.00351333	0.00342632	8.70188e-05	0
    Cl:	0.00365591	0.00357655	7.93624e-05	0
    Cl(f):	0.00182434	0.00178827	3.60636e-05	0
    Cl(r):	0.00183157	0.00178827	4.32988e-05	0
    CmPitch:	-3.61756e-06	-4.16978e-15	-3.61756e-06	0
    CmRoll:	-0.00182795	-0.00178827	-3.96812e-05	0
    CmYaw:	0.00168538	0.00163804	4.73376e-05	0
    Cs:	5.60483e-23	6.9056e-23	-1.30077e-23	0
    Cs(f):	0.00168538	0.00163804	4.73376e-05	0
    Cs(r):	-0.00168538	-0.00163804	-4.73376e-05	0

    writing force and moment coefficient files.

Time = 1996

smoothSolver:  Solving for Ux, Initial residual = 0.0362213, Final residual = 7.55013e-13, No Iterations 72
smoothSolver:  Solving for Uy, Initial residual = 0.0429265, Final residual = 8.39985e-13, No Iterations 74
GAMG:  Solving for p, Initial residual = 0.0164886, Final residual = 8.01189e-13, No Iterations 44
time step continuity errors : sum local = 1.6733e-14, global = 6.73617e-16, cumulative = 3.60737e-13
smoothSolver:  Solving for nuTilda, Initial residual = 0.0384953, Final residual = 7.7304e-13, No Iterations 76
ExecutionTime = 1270.92 s  ClockTime = 12163 s

forceCoeffs forceCoeffs write:
    Coefficient	Total	Pressure	Viscous	Internal
    Cd:	0.00338288	0.00328831	9.45741e-05	0
    Cd(f):	-0.000159388	-0.000165485	6.09734e-06	0
    Cd(r):	0.00354227	0.00345379	8.84768e-05	0
    Cl:	0.00370166	0.00361928	8.23794e-05	0
    Cl(f):	0.00184713	0.00180964	3.74956e-05	0
    Cl(r):	0.00185452	0.00180964	4.48838e-05	0
    CmPitch:	-3.69409e-06	-5.03159e-15	-3.69409e-06	0
    CmRoll:	-0.00185083	-0.00180964	-4.11897e-05	0
    CmYaw:	0.00169144	0.00164415	4.72871e-05	0
    Cs:	5.51519e-23	6.99464e-23	-1.47944e-23	0
    Cs(f):	0.00169144	0.00164415	4.72871e-05	0
    Cs(r):	-0.00169144	-0.00164415	-4.72871e-05	0

    writing force and moment coefficient files.

Time = 1997

smoothSolver:  Solving for Ux, Initial residual = 0.0358901, Final residual = 7.71341e-13, No Iterations 72
smoothSolver:  Solving for Uy, Initial residual = 0.0429169, Final residual = 8.74254e-13, No Iterations 74
GAMG:  Solving for p, Initial residual = 0.0164319, Final residual = 9.89948e-13, No Iterations 43
time step continuity errors : sum local = 2.07601e-14, global = 8.56901e-16, cumulative = 3.61594e-13
smoothSolver:  Solving for nuTilda, Initial residual = 0.0386112, Final residual = 7.74658e-13, No Iterations 76
ExecutionTime = 1271.53 s  ClockTime = 12164 s

forceCoeffs forceCoeffs write:
    Coefficient	Total	Pressure	Viscous	Internal
    Cd:	0.00338258	0.00328827	9.43105e-05	0
    Cd(f):	-0.000171669	-0.000176435	4.76638e-06	0
    Cd(r):	0.00355425	0.00346471	8.95441e-05	0
    Cl:	0.00372592	0.00364114	8.47777e-05	0
    Cl(f):	0.00185928	0.00182057	3.87107e-05	0
    Cl(r):	0.00186664	0.00182057	4.60669e-05	0
    CmPitch:	-3.6781e-06	-5.77107e-15	-3.6781e-06	0
    CmRoll:	-0.00186296	-0.00182057	-4.23888e-05	0
    CmYaw:	0.00169129	0.00164414	4.71552e-05	0
    Cs:	5.74792e-23	7.10206e-23	-1.35414e-23	0
    Cs(f):	0.00169129	0.00164414	4.71552e-05	0
    Cs(r):	-0.00169129	-0.00164414	-4.71552e-05	0

    writing force and moment coefficient files.

Time = 1998

smoothSolver:  Solving for Ux, Initial residual = 0.0355595, Final residual = 7.88491e-13, No Iterations 72
smoothSolver:  Solving for Uy, Initial residual = 0.0429266, Final residual = 9.09232e-13, No Iterations 74
GAMG:  Solving for p, Initial residual = 0.0164122, Final residual = 7.38531e-13, No Iterations 43
time step continuity errors : sum local = 1.55391e-14, global = 5.98692e-16, cumulative = 3.62193e-13
smoothSolver:  Solving for nuTilda, Initial residual = 0.0391708, Final residual = 7.72556e-13, No Iterations 76
ExecutionTime = 1272.13 s  ClockTime = 12164 s

forceCoeffs forceCoeffs write:
    Coefficient	Total	Pressure	Viscous	Internal
    Cd:	0.00337025	0.00327633	9.39209e-05	0
    Cd(f):	-0.000179265	-0.000182959	3.69467e-06	0
    Cd(r):	0.00354951	0.00345928	9.02263e-05	0
    Cl:	0.00372878	0.00364224	8.65316e-05	0
    Cl(f):	0.00186081	0.00182112	3.96859e-05	0
    Cl(r):	0.00186797	0.00182112	4.68457e-05	0
    CmPitch:	-3.57991e-06	-6.36853e-15	-3.57991e-06	0
    CmRoll:	-0.00186439	-0.00182112	-4.32658e-05	0
    CmYaw:	0.00168512	0.00163816	4.69605e-05	0
    Cs:	6.09287e-23	7.2202e-23	-1.12733e-23	0
    Cs(f):	0.00168512	0.00163816	4.69605e-05	0
    Cs(r):	-0.00168512	-0.00163816	-4.69605e-05	0

    writing force and moment coefficient files.

Time = 1999

smoothSolver:  Solving for Ux, Initial residual = 0.0353222, Final residual = 8.02367e-13, No Iterations 72
smoothSolver:  Solving for Uy, Initial residual = 0.0429241, Final residual = 9.41427e-13, No Iterations 74
GAMG:  Solving for p, Initial residual = 0.0164807, Final residual = 5.34456e-13, No Iterations 42
time step continuity errors : sum local = 1.12916e-14, global = 7.20246e-16, cumulative = 3.62913e-13
smoothSolver:  Solving for nuTilda, Initial residual = 0.0392459, Final residual = 7.7216e-13, No Iterations 76
ExecutionTime = 1272.74 s  ClockTime = 12165 s

forceCoeffs forceCoeffs write:
    Coefficient	Total	Pressure	Viscous	Internal
    Cd:	0.00334616	0.00325271	9.34541e-05	0
    Cd(f):	-0.000181663	-0.000184592	2.92949e-06	0
    Cd(r):	0.00352782	0.0034373	9.05246e-05	0
    Cl:	0.00370949	0.00362189	8.75951e-05	0
    Cl(f):	0.00185138	0.00181095	4.04345e-05	0
    Cl(r):	0.00185811	0.00181095	4.71606e-05	0
    CmPitch:	-3.36305e-06	-6.82046e-15	-3.36305e-06	0
    CmRoll:	-0.00185474	-0.00181095	-4.37975e-05	0
    CmYaw:	0.00167308	0.00162635	4.6727e-05	0
    Cs:	6.87754e-23	7.33016e-23	-4.52616e-24	0
    Cs(f):	0.00167308	0.00162635	4.6727e-05	0
    Cs(r):	-0.00167308	-0.00162635	-4.6727e-05	0

    writing force and moment coefficient files.

Time = 2000

smoothSolver:  Solving for Ux, Initial residual = 0.0350722, Final residual = 8.09705e-13, No Iterations 72
smoothSolver:  Solving for Uy, Initial residual = 0.0429172, Final residual = 9.60162e-13, No Iterations 74
GAMG:  Solving for p, Initial residual = 0.0165341, Final residual = 7.58001e-13, No Iterations 43
time step continuity errors : sum local = 1.60469e-14, global = 5.90297e-16, cumulative = 3.63503e-13
smoothSolver:  Solving for nuTilda, Initial residual = 0.0397195, Final residual = 7.666e-13, No Iterations 76
ExecutionTime = 1273.54 s  ClockTime = 12166 s

forceCoeffs forceCoeffs write:
    Coefficient	Total	Pressure	Viscous	Internal
    Cd:	0.00330912	0.00321631	9.28154e-05	0
    Cd(f):	-0.000180058	-0.000182413	2.35589e-06	0
    Cd(r):	0.00348918	0.00339872	9.04595e-05	0
    Cl:	0.00366924	0.00358113	8.81036e-05	0
    Cl(f):	0.00183151	0.00179057	4.09412e-05	0
    Cl(r):	0.00183773	0.00179057	4.71623e-05	0
    CmPitch:	-3.11056e-06	-7.26944e-15	-3.11056e-06	0
    CmRoll:	-0.00183462	-0.00179057	-4.40518e-05	0
    CmYaw:	0.00165456	0.00160815	4.64077e-05	0
    Cs:	7.36181e-23	7.42503e-23	-6.32209e-25	0
    Cs(f):	0.00165456	0.00160815	4.64077e-05	0
    Cs(r):	-0.00165456	-0.00160815	-4.64077e-05	0

    writing force and moment coefficient files.

streamLine streamlines write:
    seeded 18 particles
    Tracks:18
    Total samples:32258
End

